
---------- Begin Simulation Statistics ----------
final_tick                                99262537000                       # Number of ticks from beginning of simulation (restored from checkpoints and never reset)
host_inst_rate                                 920171                       # Simulator instruction rate (inst/s)
host_mem_usage                                 698384                       # Number of bytes of host memory used
host_op_rate                                   923524                       # Simulator op (including micro ops) rate (op/s)
host_seconds                                    66.79                       # Real time elapsed on the host
host_tick_rate                             1486238747                       # Simulator tick rate (ticks/s)
sim_freq                                 1000000000000                       # Frequency of simulated ticks
sim_insts                                    61456032                       # Number of instructions simulated
sim_ops                                      61680039                       # Number of ops (including micro ops) simulated
sim_seconds                                  0.099263                       # Number of seconds simulated
sim_ticks                                 99262537000                       # Number of ticks simulated
system.cpu.Branches                           2313777                       # Number of branches fetched
system.cpu.committedInsts                    61456032                       # Number of instructions committed
system.cpu.committedOps                      61680039                       # Number of ops (including micro ops) committed
system.cpu.dtb.accesses                             0                       # DTB accesses
system.cpu.dtb.align_faults                         0                       # Number of TLB faults due to alignment restrictions
system.cpu.dtb.domain_faults                        0                       # Number of TLB faults due to domain restrictions
system.cpu.dtb.flush_entries                        0                       # Number of entries that have been flushed from TLB
system.cpu.dtb.flush_tlb                            0                       # Number of times complete TLB was flushed
system.cpu.dtb.flush_tlb_asid                       0                       # Number of times TLB was flushed by ASID
system.cpu.dtb.flush_tlb_mva                        0                       # Number of times TLB was flushed by MVA
system.cpu.dtb.flush_tlb_mva_asid                   0                       # Number of times TLB was flushed by MVA & ASID
system.cpu.dtb.hits                                 0                       # DTB hits
system.cpu.dtb.inst_accesses                        0                       # ITB inst accesses
system.cpu.dtb.inst_hits                            0                       # ITB inst hits
system.cpu.dtb.inst_misses                          0                       # ITB inst misses
system.cpu.dtb.misses                               0                       # DTB misses
system.cpu.dtb.perms_faults                         0                       # Number of TLB faults due to permissions restrictions
system.cpu.dtb.prefetch_faults                      0                       # Number of TLB faults due to prefetch
system.cpu.dtb.read_accesses                        0                       # DTB read accesses
system.cpu.dtb.read_hits                            0                       # DTB read hits
system.cpu.dtb.read_misses                          0                       # DTB read misses
system.cpu.dtb.stage2_mmu.stage2_tlb.accesses            0                       # DTB accesses
system.cpu.dtb.stage2_mmu.stage2_tlb.align_faults            0                       # Number of TLB faults due to alignment restrictions
system.cpu.dtb.stage2_mmu.stage2_tlb.domain_faults            0                       # Number of TLB faults due to domain restrictions
system.cpu.dtb.stage2_mmu.stage2_tlb.flush_entries            0                       # Number of entries that have been flushed from TLB
system.cpu.dtb.stage2_mmu.stage2_tlb.flush_tlb            0                       # Number of times complete TLB was flushed
system.cpu.dtb.stage2_mmu.stage2_tlb.flush_tlb_asid            0                       # Number of times TLB was flushed by ASID
system.cpu.dtb.stage2_mmu.stage2_tlb.flush_tlb_mva            0                       # Number of times TLB was flushed by MVA
system.cpu.dtb.stage2_mmu.stage2_tlb.flush_tlb_mva_asid            0                       # Number of times TLB was flushed by MVA & ASID
system.cpu.dtb.stage2_mmu.stage2_tlb.hits            0                       # DTB hits
system.cpu.dtb.stage2_mmu.stage2_tlb.inst_accesses            0                       # ITB inst accesses
system.cpu.dtb.stage2_mmu.stage2_tlb.inst_hits            0                       # ITB inst hits
system.cpu.dtb.stage2_mmu.stage2_tlb.inst_misses            0                       # ITB inst misses
system.cpu.dtb.stage2_mmu.stage2_tlb.misses            0                       # DTB misses
system.cpu.dtb.stage2_mmu.stage2_tlb.perms_faults            0                       # Number of TLB faults due to permissions restrictions
system.cpu.dtb.stage2_mmu.stage2_tlb.prefetch_faults            0                       # Number of TLB faults due to prefetch
system.cpu.dtb.stage2_mmu.stage2_tlb.read_accesses            0                       # DTB read accesses
system.cpu.dtb.stage2_mmu.stage2_tlb.read_hits            0                       # DTB read hits
system.cpu.dtb.stage2_mmu.stage2_tlb.read_misses            0                       # DTB read misses
system.cpu.dtb.stage2_mmu.stage2_tlb.walker.walkRequestOrigin_Requested::Data            0                       # Table walker requests started/completed, data/inst
system.cpu.dtb.stage2_mmu.stage2_tlb.walker.walkRequestOrigin_Requested::Inst            0                       # Table walker requests started/completed, data/inst
system.cpu.dtb.stage2_mmu.stage2_tlb.walker.walkRequestOrigin_Requested::total            0                       # Table walker requests started/completed, data/inst
system.cpu.dtb.stage2_mmu.stage2_tlb.walker.walkRequestOrigin_Completed::Data            0                       # Table walker requests started/completed, data/inst
system.cpu.dtb.stage2_mmu.stage2_tlb.walker.walkRequestOrigin_Completed::Inst            0                       # Table walker requests started/completed, data/inst
system.cpu.dtb.stage2_mmu.stage2_tlb.walker.walkRequestOrigin_Completed::total            0                       # Table walker requests started/completed, data/inst
system.cpu.dtb.stage2_mmu.stage2_tlb.walker.walkRequestOrigin::total            0                       # Table walker requests started/completed, data/inst
system.cpu.dtb.stage2_mmu.stage2_tlb.walker.walks            0                       # Table walker walks requested
system.cpu.dtb.stage2_mmu.stage2_tlb.write_accesses            0                       # DTB write accesses
system.cpu.dtb.stage2_mmu.stage2_tlb.write_hits            0                       # DTB write hits
system.cpu.dtb.stage2_mmu.stage2_tlb.write_misses            0                       # DTB write misses
system.cpu.dtb.walker.walkRequestOrigin_Requested::Data            0                       # Table walker requests started/completed, data/inst
system.cpu.dtb.walker.walkRequestOrigin_Requested::Inst            0                       # Table walker requests started/completed, data/inst
system.cpu.dtb.walker.walkRequestOrigin_Requested::total            0                       # Table walker requests started/completed, data/inst
system.cpu.dtb.walker.walkRequestOrigin_Completed::Data            0                       # Table walker requests started/completed, data/inst
system.cpu.dtb.walker.walkRequestOrigin_Completed::Inst            0                       # Table walker requests started/completed, data/inst
system.cpu.dtb.walker.walkRequestOrigin_Completed::total            0                       # Table walker requests started/completed, data/inst
system.cpu.dtb.walker.walkRequestOrigin::total            0                       # Table walker requests started/completed, data/inst
system.cpu.dtb.walker.walks                         0                       # Table walker walks requested
system.cpu.dtb.write_accesses                       0                       # DTB write accesses
system.cpu.dtb.write_hits                           0                       # DTB write hits
system.cpu.dtb.write_misses                         0                       # DTB write misses
system.cpu.idle_fraction                     0.000000                       # Percentage of idle cycles
system.cpu.itb.accesses                             0                       # DTB accesses
system.cpu.itb.align_faults                         0                       # Number of TLB faults due to alignment restrictions
system.cpu.itb.domain_faults                        0                       # Number of TLB faults due to domain restrictions
system.cpu.itb.flush_entries                        0                       # Number of entries that have been flushed from TLB
system.cpu.itb.flush_tlb                            0                       # Number of times complete TLB was flushed
system.cpu.itb.flush_tlb_asid                       0                       # Number of times TLB was flushed by ASID
system.cpu.itb.flush_tlb_mva                        0                       # Number of times TLB was flushed by MVA
system.cpu.itb.flush_tlb_mva_asid                   0                       # Number of times TLB was flushed by MVA & ASID
system.cpu.itb.hits                                 0                       # DTB hits
system.cpu.itb.inst_accesses                        0                       # ITB inst accesses
system.cpu.itb.inst_hits                            0                       # ITB inst hits
system.cpu.itb.inst_misses                          0                       # ITB inst misses
system.cpu.itb.misses                               0                       # DTB misses
system.cpu.itb.perms_faults                         0                       # Number of TLB faults due to permissions restrictions
system.cpu.itb.prefetch_faults                      0                       # Number of TLB faults due to prefetch
system.cpu.itb.read_accesses                        0                       # DTB read accesses
system.cpu.itb.read_hits                            0                       # DTB read hits
system.cpu.itb.read_misses                          0                       # DTB read misses
system.cpu.itb.stage2_mmu.stage2_tlb.accesses            0                       # DTB accesses
system.cpu.itb.stage2_mmu.stage2_tlb.align_faults            0                       # Number of TLB faults due to alignment restrictions
system.cpu.itb.stage2_mmu.stage2_tlb.domain_faults            0                       # Number of TLB faults due to domain restrictions
system.cpu.itb.stage2_mmu.stage2_tlb.flush_entries            0                       # Number of entries that have been flushed from TLB
system.cpu.itb.stage2_mmu.stage2_tlb.flush_tlb            0                       # Number of times complete TLB was flushed
system.cpu.itb.stage2_mmu.stage2_tlb.flush_tlb_asid            0                       # Number of times TLB was flushed by ASID
system.cpu.itb.stage2_mmu.stage2_tlb.flush_tlb_mva            0                       # Number of times TLB was flushed by MVA
system.cpu.itb.stage2_mmu.stage2_tlb.flush_tlb_mva_asid            0                       # Number of times TLB was flushed by MVA & ASID
system.cpu.itb.stage2_mmu.stage2_tlb.hits            0                       # DTB hits
system.cpu.itb.stage2_mmu.stage2_tlb.inst_accesses            0                       # ITB inst accesses
system.cpu.itb.stage2_mmu.stage2_tlb.inst_hits            0                       # ITB inst hits
system.cpu.itb.stage2_mmu.stage2_tlb.inst_misses            0                       # ITB inst misses
system.cpu.itb.stage2_mmu.stage2_tlb.misses            0                       # DTB misses
system.cpu.itb.stage2_mmu.stage2_tlb.perms_faults            0                       # Number of TLB faults due to permissions restrictions
system.cpu.itb.stage2_mmu.stage2_tlb.prefetch_faults            0                       # Number of TLB faults due to prefetch
system.cpu.itb.stage2_mmu.stage2_tlb.read_accesses            0                       # DTB read accesses
system.cpu.itb.stage2_mmu.stage2_tlb.read_hits            0                       # DTB read hits
system.cpu.itb.stage2_mmu.stage2_tlb.read_misses            0                       # DTB read misses
system.cpu.itb.stage2_mmu.stage2_tlb.walker.walkRequestOrigin_Requested::Data            0                       # Table walker requests started/completed, data/inst
system.cpu.itb.stage2_mmu.stage2_tlb.walker.walkRequestOrigin_Requested::Inst            0                       # Table walker requests started/completed, data/inst
system.cpu.itb.stage2_mmu.stage2_tlb.walker.walkRequestOrigin_Requested::total            0                       # Table walker requests started/completed, data/inst
system.cpu.itb.stage2_mmu.stage2_tlb.walker.walkRequestOrigin_Completed::Data            0                       # Table walker requests started/completed, data/inst
system.cpu.itb.stage2_mmu.stage2_tlb.walker.walkRequestOrigin_Completed::Inst            0                       # Table walker requests started/completed, data/inst
system.cpu.itb.stage2_mmu.stage2_tlb.walker.walkRequestOrigin_Completed::total            0                       # Table walker requests started/completed, data/inst
system.cpu.itb.stage2_mmu.stage2_tlb.walker.walkRequestOrigin::total            0                       # Table walker requests started/completed, data/inst
system.cpu.itb.stage2_mmu.stage2_tlb.walker.walks            0                       # Table walker walks requested
system.cpu.itb.stage2_mmu.stage2_tlb.write_accesses            0                       # DTB write accesses
system.cpu.itb.stage2_mmu.stage2_tlb.write_hits            0                       # DTB write hits
system.cpu.itb.stage2_mmu.stage2_tlb.write_misses            0                       # DTB write misses
system.cpu.itb.walker.walkRequestOrigin_Requested::Data            0                       # Table walker requests started/completed, data/inst
system.cpu.itb.walker.walkRequestOrigin_Requested::Inst            0                       # Table walker requests started/completed, data/inst
system.cpu.itb.walker.walkRequestOrigin_Requested::total            0                       # Table walker requests started/completed, data/inst
system.cpu.itb.walker.walkRequestOrigin_Completed::Data            0                       # Table walker requests started/completed, data/inst
system.cpu.itb.walker.walkRequestOrigin_Completed::Inst            0                       # Table walker requests started/completed, data/inst
system.cpu.itb.walker.walkRequestOrigin_Completed::total            0                       # Table walker requests started/completed, data/inst
system.cpu.itb.walker.walkRequestOrigin::total            0                       # Table walker requests started/completed, data/inst
system.cpu.itb.walker.walks                         0                       # Table walker walks requested
system.cpu.itb.write_accesses                       0                       # DTB write accesses
system.cpu.itb.write_hits                           0                       # DTB write hits
system.cpu.itb.write_misses                         0                       # DTB write misses
system.cpu.not_idle_fraction                 1.000000                       # Percentage of non-idle cycles
system.cpu.numCycles                        198525074                       # number of cpu cycles simulated
system.cpu.numWorkItemsCompleted                    0                       # number of work items this cpu completed
system.cpu.numWorkItemsStarted                      0                       # number of work items this cpu started
system.cpu.num_busy_cycles               198525073.998000                       # Number of busy cycles
system.cpu.num_cc_register_reads            261834000                       # number of times the CC registers were read
system.cpu.num_cc_register_writes             7036365                       # number of times the CC registers were written
system.cpu.num_conditional_control_insts      2104314                       # number of instructions that are conditional controls
system.cpu.num_fp_alu_accesses                      0                       # Number of float alu accesses
system.cpu.num_fp_insts                             0                       # number of float instructions
system.cpu.num_fp_register_reads                    0                       # number of times the floating registers were read
system.cpu.num_fp_register_writes                   0                       # number of times the floating registers were written
system.cpu.num_func_calls                      112570                       # number of times a function call or return occured
system.cpu.num_idle_cycles                   0.002000                       # Number of idle cycles
system.cpu.num_int_alu_accesses              59512698                       # Number of integer alu accesses
system.cpu.num_int_insts                     59512698                       # number of integer instructions
system.cpu.num_int_register_reads           119729109                       # number of times the integer registers were read
system.cpu.num_int_register_writes           45311196                       # number of times the integer registers were written
system.cpu.num_load_insts                    25597352                       # Number of load instructions
system.cpu.num_mem_refs                      37503510                       # number of memory refs
system.cpu.num_store_insts                   11906158                       # Number of store instructions
system.cpu.num_vec_alu_accesses                     0                       # Number of vector alu accesses
system.cpu.num_vec_insts                            0                       # number of vector instructions
system.cpu.num_vec_register_reads                  16                       # number of times the vector registers were read
system.cpu.num_vec_register_writes                  0                       # number of times the vector registers were written
system.cpu.op_class::No_OpClass                     0      0.00%      0.00% # Class of executed instruction
system.cpu.op_class::IntAlu                  20886613     33.85%     33.85% # Class of executed instruction
system.cpu.op_class::IntMult                  3313521      5.37%     39.22% # Class of executed instruction
system.cpu.op_class::IntDiv                         0      0.00%     39.22% # Class of executed instruction
system.cpu.op_class::FloatAdd                       0      0.00%     39.22% # Class of executed instruction
system.cpu.op_class::FloatCmp                       0      0.00%     39.22% # Class of executed instruction
system.cpu.op_class::FloatCvt                       0      0.00%     39.22% # Class of executed instruction
system.cpu.op_class::FloatMult                      0      0.00%     39.22% # Class of executed instruction
system.cpu.op_class::FloatMultAcc                   0      0.00%     39.22% # Class of executed instruction
system.cpu.op_class::FloatDiv                       0      0.00%     39.22% # Class of executed instruction
system.cpu.op_class::FloatMisc                      0      0.00%     39.22% # Class of executed instruction
system.cpu.op_class::FloatSqrt                      0      0.00%     39.22% # Class of executed instruction
system.cpu.op_class::SimdAdd                        0      0.00%     39.22% # Class of executed instruction
system.cpu.op_class::SimdAddAcc                     0      0.00%     39.22% # Class of executed instruction
system.cpu.op_class::SimdAlu                        0      0.00%     39.22% # Class of executed instruction
system.cpu.op_class::SimdCmp                        0      0.00%     39.22% # Class of executed instruction
system.cpu.op_class::SimdCvt                        0      0.00%     39.22% # Class of executed instruction
system.cpu.op_class::SimdMisc                       0      0.00%     39.22% # Class of executed instruction
system.cpu.op_class::SimdMult                       0      0.00%     39.22% # Class of executed instruction
system.cpu.op_class::SimdMultAcc                    0      0.00%     39.22% # Class of executed instruction
system.cpu.op_class::SimdShift                      0      0.00%     39.22% # Class of executed instruction
system.cpu.op_class::SimdShiftAcc                   0      0.00%     39.22% # Class of executed instruction
system.cpu.op_class::SimdDiv                        0      0.00%     39.22% # Class of executed instruction
system.cpu.op_class::SimdSqrt                       0      0.00%     39.22% # Class of executed instruction
system.cpu.op_class::SimdFloatAdd                   0      0.00%     39.22% # Class of executed instruction
system.cpu.op_class::SimdFloatAlu                   0      0.00%     39.22% # Class of executed instruction
system.cpu.op_class::SimdFloatCmp                   0      0.00%     39.22% # Class of executed instruction
system.cpu.op_class::SimdFloatCvt                   0      0.00%     39.22% # Class of executed instruction
system.cpu.op_class::SimdFloatDiv                   0      0.00%     39.22% # Class of executed instruction
system.cpu.op_class::SimdFloatMisc                738      0.00%     39.22% # Class of executed instruction
system.cpu.op_class::SimdFloatMult                  0      0.00%     39.22% # Class of executed instruction
system.cpu.op_class::SimdFloatMultAcc               0      0.00%     39.22% # Class of executed instruction
system.cpu.op_class::SimdFloatSqrt                  0      0.00%     39.22% # Class of executed instruction
system.cpu.op_class::SimdReduceAdd                  0      0.00%     39.22% # Class of executed instruction
system.cpu.op_class::SimdReduceAlu                  0      0.00%     39.22% # Class of executed instruction
system.cpu.op_class::SimdReduceCmp                  0      0.00%     39.22% # Class of executed instruction
system.cpu.op_class::SimdFloatReduceAdd             0      0.00%     39.22% # Class of executed instruction
system.cpu.op_class::SimdFloatReduceCmp             0      0.00%     39.22% # Class of executed instruction
system.cpu.op_class::SimdAes                        0      0.00%     39.22% # Class of executed instruction
system.cpu.op_class::SimdAesMix                     0      0.00%     39.22% # Class of executed instruction
system.cpu.op_class::SimdSha1Hash                   0      0.00%     39.22% # Class of executed instruction
system.cpu.op_class::SimdSha1Hash2                  0      0.00%     39.22% # Class of executed instruction
system.cpu.op_class::SimdSha256Hash                 0      0.00%     39.22% # Class of executed instruction
system.cpu.op_class::SimdSha256Hash2                0      0.00%     39.22% # Class of executed instruction
system.cpu.op_class::SimdShaSigma2                  0      0.00%     39.22% # Class of executed instruction
system.cpu.op_class::SimdShaSigma3                  0      0.00%     39.22% # Class of executed instruction
system.cpu.op_class::SimdPredAlu                    0      0.00%     39.22% # Class of executed instruction
system.cpu.op_class::MemRead                 25597352     41.48%     80.70% # Class of executed instruction
system.cpu.op_class::MemWrite                11906158     19.30%    100.00% # Class of executed instruction
system.cpu.op_class::FloatMemRead                   0      0.00%    100.00% # Class of executed instruction
system.cpu.op_class::FloatMemWrite                  0      0.00%    100.00% # Class of executed instruction
system.cpu.op_class::IprAccess                      0      0.00%    100.00% # Class of executed instruction
system.cpu.op_class::InstPrefetch                   0      0.00%    100.00% # Class of executed instruction
system.cpu.op_class::total                   61704382                       # Class of executed instruction
system.cpu.workload.numSyscalls                    17                       # Number of system calls
system.membus.snoop_filter.hit_multi_requests          556                       # Number of requests hitting in the snoop filter with multiple (>1) holders of the requested data.
system.membus.snoop_filter.hit_multi_snoops            0                       # Number of snoops hitting in the snoop filter with multiple (>1) holders of the requested data.
system.membus.snoop_filter.hit_single_requests         8602                       # Number of requests hitting in the snoop filter with a single holder of the requested data.
system.membus.snoop_filter.hit_single_snoops            0                       # Number of snoops hitting in the snoop filter with a single holder of the requested data.
system.membus.snoop_filter.tot_requests         17826                       # Total number of requests made to the snoop filter.
system.membus.snoop_filter.tot_snoops               0                       # Total number of snoops made to the snoop filter.
system.membus.pwrStateResidencyTicks::UNDEFINED  99262537000                       # Cumulative time (in ticks) in various power states
system.membus.trans_dist::ReadResp               8745                       # Transaction distribution
system.membus.trans_dist::WritebackDirty          212                       # Transaction distribution
system.membus.trans_dist::WritebackClean         7993                       # Transaction distribution
system.membus.trans_dist::CleanEvict              388                       # Transaction distribution
system.membus.trans_dist::ReadExReq               488                       # Transaction distribution
system.membus.trans_dist::ReadExResp              488                       # Transaction distribution
system.membus.trans_dist::ReadCleanReq           8121                       # Transaction distribution
system.membus.trans_dist::ReadSharedReq           624                       # Transaction distribution
system.membus.pkt_count_system.cpu.icache.mem_side::system.mem_ctrls.port        24235                       # Packet count per connected master and slave (bytes)
system.membus.pkt_count_system.cpu.dcache.mem_side::system.mem_ctrls.port         2824                       # Packet count per connected master and slave (bytes)
system.membus.pkt_count::total                  27059                       # Packet count per connected master and slave (bytes)
system.membus.pkt_size_system.cpu.icache.mem_side::system.mem_ctrls.port      1031296                       # Cumulative packet size per connected master and slave (bytes)
system.membus.pkt_size_system.cpu.dcache.mem_side::system.mem_ctrls.port        84736                       # Cumulative packet size per connected master and slave (bytes)
system.membus.pkt_size::total                 1116032                       # Cumulative packet size per connected master and slave (bytes)
system.membus.snoops                                0                       # Total snoops (count)
system.membus.snoopTraffic                          0                       # Total snoop traffic (bytes)
system.membus.snoop_fanout::samples              9233                       # Request fanout histogram
system.membus.snoop_fanout::mean             0.061194                       # Request fanout histogram
system.membus.snoop_fanout::stdev            0.239698                       # Request fanout histogram
system.membus.snoop_fanout::underflows              0      0.00%      0.00% # Request fanout histogram
system.membus.snoop_fanout::0                    8668     93.88%     93.88% # Request fanout histogram
system.membus.snoop_fanout::1                     565      6.12%    100.00% # Request fanout histogram
system.membus.snoop_fanout::2                       0      0.00%    100.00% # Request fanout histogram
system.membus.snoop_fanout::overflows               0      0.00%    100.00% # Request fanout histogram
system.membus.snoop_fanout::min_value               0                       # Request fanout histogram
system.membus.snoop_fanout::max_value               1                       # Request fanout histogram
system.membus.snoop_fanout::total                9233                       # Request fanout histogram
system.membus.reqLayer0.occupancy            50972500                       # Layer occupancy (ticks)
system.membus.reqLayer0.utilization               0.1                       # Layer utilization (%)
system.membus.respLayer1.occupancy           41080500                       # Layer occupancy (ticks)
system.membus.respLayer1.utilization              0.0                       # Layer utilization (%)
system.membus.respLayer2.occupancy            5909250                       # Layer occupancy (ticks)
system.membus.respLayer2.utilization              0.0                       # Layer utilization (%)
system.voltage_domain.voltage                       1                       # Voltage in Volts
system.clk_domain.clock                          1000                       # Clock period in ticks
system.cpu_voltage_domain.voltage                   1                       # Voltage in Volts
system.mem_ctrls.pwrStateResidencyTicks::UNDEFINED  99262537000                       # Cumulative time (in ticks) in various power states
system.mem_ctrls.bytes_read::.cpu.inst         519744                       # Number of bytes read from this memory
system.mem_ctrls.bytes_read::.cpu.data          71168                       # Number of bytes read from this memory
system.mem_ctrls.bytes_read::total             590912                       # Number of bytes read from this memory
system.mem_ctrls.bytes_inst_read::.cpu.inst       519744                       # Number of instructions bytes read from this memory
system.mem_ctrls.bytes_inst_read::total        519744                       # Number of instructions bytes read from this memory
system.mem_ctrls.bytes_written::.writebacks        13568                       # Number of bytes written to this memory
system.mem_ctrls.bytes_written::total           13568                       # Number of bytes written to this memory
system.mem_ctrls.num_reads::.cpu.inst            8121                       # Number of read requests responded to by this memory
system.mem_ctrls.num_reads::.cpu.data            1112                       # Number of read requests responded to by this memory
system.mem_ctrls.num_reads::total                9233                       # Number of read requests responded to by this memory
system.mem_ctrls.num_writes::.writebacks          212                       # Number of write requests responded to by this memory
system.mem_ctrls.num_writes::total                212                       # Number of write requests responded to by this memory
system.mem_ctrls.bw_read::.cpu.inst           5236054                       # Total read bandwidth from this memory (bytes/s)
system.mem_ctrls.bw_read::.cpu.data            716967                       # Total read bandwidth from this memory (bytes/s)
system.mem_ctrls.bw_read::total               5953021                       # Total read bandwidth from this memory (bytes/s)
system.mem_ctrls.bw_inst_read::.cpu.inst      5236054                       # Instruction read bandwidth from this memory (bytes/s)
system.mem_ctrls.bw_inst_read::total          5236054                       # Instruction read bandwidth from this memory (bytes/s)
system.mem_ctrls.bw_write::.writebacks         136688                       # Write bandwidth from this memory (bytes/s)
system.mem_ctrls.bw_write::total               136688                       # Write bandwidth from this memory (bytes/s)
system.mem_ctrls.bw_total::.writebacks         136688                       # Total bandwidth to/from this memory (bytes/s)
system.mem_ctrls.bw_total::.cpu.inst          5236054                       # Total bandwidth to/from this memory (bytes/s)
system.mem_ctrls.bw_total::.cpu.data           716967                       # Total bandwidth to/from this memory (bytes/s)
system.mem_ctrls.bw_total::total              6089709                       # Total bandwidth to/from this memory (bytes/s)
system.mem_ctrls.avgPriority_.writebacks::samples      1084.00                       # Average QoS priority value for accepted requests
system.mem_ctrls.avgPriority_.cpu.inst::samples      1471.00                       # Average QoS priority value for accepted requests
system.mem_ctrls.avgPriority_.cpu.data::samples      1087.00                       # Average QoS priority value for accepted requests
system.mem_ctrls.priorityMinLatency      0.000000018750                       # per QoS priority minimum request to response latency (s)
system.mem_ctrls.priorityMaxLatency      0.195194112500                       # per QoS priority maximum request to response latency (s)
system.mem_ctrls.numReadWriteTurnArounds           64                       # Number of turnarounds from READ to WRITE
system.mem_ctrls.numWriteReadTurnArounds           64                       # Number of turnarounds from WRITE to READ
system.mem_ctrls.numStayReadState               38207                       # Number of times bus staying in READ state
system.mem_ctrls.numStayWriteState                989                       # Number of times bus staying in WRITE state
system.mem_ctrls.readReqs                        9233                       # Number of read requests accepted
system.mem_ctrls.writeReqs                       7655                       # Number of write requests accepted
system.mem_ctrls.readBursts                      9233                       # Number of DRAM read bursts, including those serviced by the write queue
system.mem_ctrls.writeBursts                     7655                       # Number of DRAM write bursts, including those merged in the write queue
system.mem_ctrls.servicedByWrQ                   6675                       # Number of DRAM read bursts serviced by the write queue
system.mem_ctrls.mergedWrBursts                  6571                       # Number of DRAM write bursts merged with an existing one
system.mem_ctrls.neitherReadNorWriteReqs            0                       # Number of requests that are neither read nor write
system.mem_ctrls.perBankRdBursts::0               756                       # Per bank write bursts
system.mem_ctrls.perBankRdBursts::1               206                       # Per bank write bursts
system.mem_ctrls.perBankRdBursts::2                52                       # Per bank write bursts
system.mem_ctrls.perBankRdBursts::3               210                       # Per bank write bursts
system.mem_ctrls.perBankRdBursts::4               381                       # Per bank write bursts
system.mem_ctrls.perBankRdBursts::5               208                       # Per bank write bursts
system.mem_ctrls.perBankRdBursts::6               282                       # Per bank write bursts
system.mem_ctrls.perBankRdBursts::7                99                       # Per bank write bursts
system.mem_ctrls.perBankRdBursts::8               133                       # Per bank write bursts
system.mem_ctrls.perBankRdBursts::9                42                       # Per bank write bursts
system.mem_ctrls.perBankRdBursts::10                9                       # Per bank write bursts
system.mem_ctrls.perBankRdBursts::11               34                       # Per bank write bursts
system.mem_ctrls.perBankRdBursts::12               28                       # Per bank write bursts
system.mem_ctrls.perBankRdBursts::13               10                       # Per bank write bursts
system.mem_ctrls.perBankRdBursts::14               81                       # Per bank write bursts
system.mem_ctrls.perBankRdBursts::15               27                       # Per bank write bursts
system.mem_ctrls.perBankWrBursts::0               172                       # Per bank write bursts
system.mem_ctrls.perBankWrBursts::1               127                       # Per bank write bursts
system.mem_ctrls.perBankWrBursts::2                18                       # Per bank write bursts
system.mem_ctrls.perBankWrBursts::3                34                       # Per bank write bursts
system.mem_ctrls.perBankWrBursts::4               156                       # Per bank write bursts
system.mem_ctrls.perBankWrBursts::5                89                       # Per bank write bursts
system.mem_ctrls.perBankWrBursts::6               149                       # Per bank write bursts
system.mem_ctrls.perBankWrBursts::7                28                       # Per bank write bursts
system.mem_ctrls.perBankWrBursts::8               121                       # Per bank write bursts
system.mem_ctrls.perBankWrBursts::9                26                       # Per bank write bursts
system.mem_ctrls.perBankWrBursts::10                8                       # Per bank write bursts
system.mem_ctrls.perBankWrBursts::11               18                       # Per bank write bursts
system.mem_ctrls.perBankWrBursts::12               27                       # Per bank write bursts
system.mem_ctrls.perBankWrBursts::13                4                       # Per bank write bursts
system.mem_ctrls.perBankWrBursts::14               56                       # Per bank write bursts
system.mem_ctrls.perBankWrBursts::15               19                       # Per bank write bursts
system.mem_ctrls.avgRdQLen                       1.00                       # Average read queue length when enqueuing
system.mem_ctrls.avgWrQLen                      30.51                       # Average write queue length when enqueuing
system.mem_ctrls.totQLat                     26973750                       # Total ticks spent queuing
system.mem_ctrls.totBusLat                   12790000                       # Total ticks spent in databus transfers
system.mem_ctrls.totMemAccLat                74936250                       # Total ticks spent from burst creation until serviced by the DRAM
system.mem_ctrls.avgQLat                     10544.86                       # Average queueing delay per DRAM burst
system.mem_ctrls.avgBusLat                    5000.00                       # Average bus latency per DRAM burst
system.mem_ctrls.avgMemAccLat                29294.86                       # Average memory access latency per DRAM burst
system.mem_ctrls.numRdRetry                         0                       # Number of times read queue was full causing retry
system.mem_ctrls.numWrRetry                         0                       # Number of times write queue was full causing retry
system.mem_ctrls.readRowHits                     1878                       # Number of row buffer hits during reads
system.mem_ctrls.writeRowHits                     835                       # Number of row buffer hits during writes
system.mem_ctrls.readRowHitRate                 73.42                       # Row buffer hit rate for reads
system.mem_ctrls.writeRowHitRate                77.03                       # Row buffer hit rate for writes
system.mem_ctrls.readPktSize::0                     0                       # Read request sizes (log2)
system.mem_ctrls.readPktSize::1                     0                       # Read request sizes (log2)
system.mem_ctrls.readPktSize::2                     0                       # Read request sizes (log2)
system.mem_ctrls.readPktSize::3                     0                       # Read request sizes (log2)
system.mem_ctrls.readPktSize::4                     0                       # Read request sizes (log2)
system.mem_ctrls.readPktSize::5                     0                       # Read request sizes (log2)
system.mem_ctrls.readPktSize::6                  9233                       # Read request sizes (log2)
system.mem_ctrls.writePktSize::0                    0                       # Write request sizes (log2)
system.mem_ctrls.writePktSize::1                    0                       # Write request sizes (log2)
system.mem_ctrls.writePktSize::2                    0                       # Write request sizes (log2)
system.mem_ctrls.writePktSize::3                    0                       # Write request sizes (log2)
system.mem_ctrls.writePktSize::4                    0                       # Write request sizes (log2)
system.mem_ctrls.writePktSize::5                    0                       # Write request sizes (log2)
system.mem_ctrls.writePktSize::6                 7655                       # Write request sizes (log2)
system.mem_ctrls.rdQLenPdf::0                    2558                       # What read queue length does an incoming req see
system.mem_ctrls.rdQLenPdf::1                       0                       # What read queue length does an incoming req see
system.mem_ctrls.rdQLenPdf::2                       0                       # What read queue length does an incoming req see
system.mem_ctrls.rdQLenPdf::3                       0                       # What read queue length does an incoming req see
system.mem_ctrls.rdQLenPdf::4                       0                       # What read queue length does an incoming req see
system.mem_ctrls.rdQLenPdf::5                       0                       # What read queue length does an incoming req see
system.mem_ctrls.rdQLenPdf::6                       0                       # What read queue length does an incoming req see
system.mem_ctrls.rdQLenPdf::7                       0                       # What read queue length does an incoming req see
system.mem_ctrls.rdQLenPdf::8                       0                       # What read queue length does an incoming req see
system.mem_ctrls.rdQLenPdf::9                       0                       # What read queue length does an incoming req see
system.mem_ctrls.rdQLenPdf::10                      0                       # What read queue length does an incoming req see
system.mem_ctrls.rdQLenPdf::11                      0                       # What read queue length does an incoming req see
system.mem_ctrls.rdQLenPdf::12                      0                       # What read queue length does an incoming req see
system.mem_ctrls.rdQLenPdf::13                      0                       # What read queue length does an incoming req see
system.mem_ctrls.rdQLenPdf::14                      0                       # What read queue length does an incoming req see
system.mem_ctrls.rdQLenPdf::15                      0                       # What read queue length does an incoming req see
system.mem_ctrls.rdQLenPdf::16                      0                       # What read queue length does an incoming req see
system.mem_ctrls.rdQLenPdf::17                      0                       # What read queue length does an incoming req see
system.mem_ctrls.rdQLenPdf::18                      0                       # What read queue length does an incoming req see
system.mem_ctrls.rdQLenPdf::19                      0                       # What read queue length does an incoming req see
system.mem_ctrls.rdQLenPdf::20                      0                       # What read queue length does an incoming req see
system.mem_ctrls.rdQLenPdf::21                      0                       # What read queue length does an incoming req see
system.mem_ctrls.rdQLenPdf::22                      0                       # What read queue length does an incoming req see
system.mem_ctrls.rdQLenPdf::23                      0                       # What read queue length does an incoming req see
system.mem_ctrls.rdQLenPdf::24                      0                       # What read queue length does an incoming req see
system.mem_ctrls.rdQLenPdf::25                      0                       # What read queue length does an incoming req see
system.mem_ctrls.rdQLenPdf::26                      0                       # What read queue length does an incoming req see
system.mem_ctrls.rdQLenPdf::27                      0                       # What read queue length does an incoming req see
system.mem_ctrls.rdQLenPdf::28                      0                       # What read queue length does an incoming req see
system.mem_ctrls.rdQLenPdf::29                      0                       # What read queue length does an incoming req see
system.mem_ctrls.rdQLenPdf::30                      0                       # What read queue length does an incoming req see
system.mem_ctrls.rdQLenPdf::31                      0                       # What read queue length does an incoming req see
system.mem_ctrls.wrQLenPdf::0                       1                       # What write queue length does an incoming req see
system.mem_ctrls.wrQLenPdf::1                       1                       # What write queue length does an incoming req see
system.mem_ctrls.wrQLenPdf::2                       1                       # What write queue length does an incoming req see
system.mem_ctrls.wrQLenPdf::3                       1                       # What write queue length does an incoming req see
system.mem_ctrls.wrQLenPdf::4                       1                       # What write queue length does an incoming req see
system.mem_ctrls.wrQLenPdf::5                       1                       # What write queue length does an incoming req see
system.mem_ctrls.wrQLenPdf::6                       1                       # What write queue length does an incoming req see
system.mem_ctrls.wrQLenPdf::7                       1                       # What write queue length does an incoming req see
system.mem_ctrls.wrQLenPdf::8                       1                       # What write queue length does an incoming req see
system.mem_ctrls.wrQLenPdf::9                       1                       # What write queue length does an incoming req see
system.mem_ctrls.wrQLenPdf::10                      1                       # What write queue length does an incoming req see
system.mem_ctrls.wrQLenPdf::11                      1                       # What write queue length does an incoming req see
system.mem_ctrls.wrQLenPdf::12                      1                       # What write queue length does an incoming req see
system.mem_ctrls.wrQLenPdf::13                      1                       # What write queue length does an incoming req see
system.mem_ctrls.wrQLenPdf::14                      1                       # What write queue length does an incoming req see
system.mem_ctrls.wrQLenPdf::15                     13                       # What write queue length does an incoming req see
system.mem_ctrls.wrQLenPdf::16                     14                       # What write queue length does an incoming req see
system.mem_ctrls.wrQLenPdf::17                     64                       # What write queue length does an incoming req see
system.mem_ctrls.wrQLenPdf::18                     65                       # What write queue length does an incoming req see
system.mem_ctrls.wrQLenPdf::19                     65                       # What write queue length does an incoming req see
system.mem_ctrls.wrQLenPdf::20                     66                       # What write queue length does an incoming req see
system.mem_ctrls.wrQLenPdf::21                     67                       # What write queue length does an incoming req see
system.mem_ctrls.wrQLenPdf::22                     65                       # What write queue length does an incoming req see
system.mem_ctrls.wrQLenPdf::23                     65                       # What write queue length does an incoming req see
system.mem_ctrls.wrQLenPdf::24                     66                       # What write queue length does an incoming req see
system.mem_ctrls.wrQLenPdf::25                     65                       # What write queue length does an incoming req see
system.mem_ctrls.wrQLenPdf::26                     65                       # What write queue length does an incoming req see
system.mem_ctrls.wrQLenPdf::27                     65                       # What write queue length does an incoming req see
system.mem_ctrls.wrQLenPdf::28                     65                       # What write queue length does an incoming req see
system.mem_ctrls.wrQLenPdf::29                     65                       # What write queue length does an incoming req see
system.mem_ctrls.wrQLenPdf::30                     65                       # What write queue length does an incoming req see
system.mem_ctrls.wrQLenPdf::31                     65                       # What write queue length does an incoming req see
system.mem_ctrls.wrQLenPdf::32                     64                       # What write queue length does an incoming req see
system.mem_ctrls.wrQLenPdf::33                      0                       # What write queue length does an incoming req see
system.mem_ctrls.wrQLenPdf::34                      0                       # What write queue length does an incoming req see
system.mem_ctrls.wrQLenPdf::35                      0                       # What write queue length does an incoming req see
system.mem_ctrls.wrQLenPdf::36                      0                       # What write queue length does an incoming req see
system.mem_ctrls.wrQLenPdf::37                      0                       # What write queue length does an incoming req see
system.mem_ctrls.wrQLenPdf::38                      0                       # What write queue length does an incoming req see
system.mem_ctrls.wrQLenPdf::39                      0                       # What write queue length does an incoming req see
system.mem_ctrls.wrQLenPdf::40                      0                       # What write queue length does an incoming req see
system.mem_ctrls.wrQLenPdf::41                      0                       # What write queue length does an incoming req see
system.mem_ctrls.wrQLenPdf::42                      0                       # What write queue length does an incoming req see
system.mem_ctrls.wrQLenPdf::43                      0                       # What write queue length does an incoming req see
system.mem_ctrls.wrQLenPdf::44                      0                       # What write queue length does an incoming req see
system.mem_ctrls.wrQLenPdf::45                      0                       # What write queue length does an incoming req see
system.mem_ctrls.wrQLenPdf::46                      0                       # What write queue length does an incoming req see
system.mem_ctrls.wrQLenPdf::47                      0                       # What write queue length does an incoming req see
system.mem_ctrls.wrQLenPdf::48                      0                       # What write queue length does an incoming req see
system.mem_ctrls.wrQLenPdf::49                      0                       # What write queue length does an incoming req see
system.mem_ctrls.wrQLenPdf::50                      0                       # What write queue length does an incoming req see
system.mem_ctrls.wrQLenPdf::51                      0                       # What write queue length does an incoming req see
system.mem_ctrls.wrQLenPdf::52                      0                       # What write queue length does an incoming req see
system.mem_ctrls.wrQLenPdf::53                      0                       # What write queue length does an incoming req see
system.mem_ctrls.wrQLenPdf::54                      0                       # What write queue length does an incoming req see
system.mem_ctrls.wrQLenPdf::55                      0                       # What write queue length does an incoming req see
system.mem_ctrls.wrQLenPdf::56                      0                       # What write queue length does an incoming req see
system.mem_ctrls.wrQLenPdf::57                      0                       # What write queue length does an incoming req see
system.mem_ctrls.wrQLenPdf::58                      0                       # What write queue length does an incoming req see
system.mem_ctrls.wrQLenPdf::59                      0                       # What write queue length does an incoming req see
system.mem_ctrls.wrQLenPdf::60                      0                       # What write queue length does an incoming req see
system.mem_ctrls.wrQLenPdf::61                      0                       # What write queue length does an incoming req see
system.mem_ctrls.wrQLenPdf::62                      0                       # What write queue length does an incoming req see
system.mem_ctrls.wrQLenPdf::63                      0                       # What write queue length does an incoming req see
system.mem_ctrls.bytesPerActivate::samples          888                       # Bytes accessed per row activation
system.mem_ctrls.bytesPerActivate::mean    257.441441                       # Bytes accessed per row activation
system.mem_ctrls.bytesPerActivate::gmean   178.525144                       # Bytes accessed per row activation
system.mem_ctrls.bytesPerActivate::stdev   253.038560                       # Bytes accessed per row activation
system.mem_ctrls.bytesPerActivate::0-127          223     25.11%     25.11% # Bytes accessed per row activation
system.mem_ctrls.bytesPerActivate::128-255          381     42.91%     68.02% # Bytes accessed per row activation
system.mem_ctrls.bytesPerActivate::256-383          105     11.82%     79.84% # Bytes accessed per row activation
system.mem_ctrls.bytesPerActivate::384-511           51      5.74%     85.59% # Bytes accessed per row activation
system.mem_ctrls.bytesPerActivate::512-639           34      3.83%     89.41% # Bytes accessed per row activation
system.mem_ctrls.bytesPerActivate::640-767           23      2.59%     92.00% # Bytes accessed per row activation
system.mem_ctrls.bytesPerActivate::768-895           13      1.46%     93.47% # Bytes accessed per row activation
system.mem_ctrls.bytesPerActivate::896-1023           12      1.35%     94.82% # Bytes accessed per row activation
system.mem_ctrls.bytesPerActivate::1024-1151           46      5.18%    100.00% # Bytes accessed per row activation
system.mem_ctrls.bytesPerActivate::total          888                       # Bytes accessed per row activation
system.mem_ctrls.rdPerTurnAround::samples           64                       # Reads before turning the bus around for writes
system.mem_ctrls.rdPerTurnAround::mean      39.687500                       # Reads before turning the bus around for writes
system.mem_ctrls.rdPerTurnAround::gmean     27.033477                       # Reads before turning the bus around for writes
system.mem_ctrls.rdPerTurnAround::stdev     54.036694                       # Reads before turning the bus around for writes
system.mem_ctrls.rdPerTurnAround::0-15              4      6.25%      6.25% # Reads before turning the bus around for writes
system.mem_ctrls.rdPerTurnAround::16-31            43     67.19%     73.44% # Reads before turning the bus around for writes
system.mem_ctrls.rdPerTurnAround::32-47             9     14.06%     87.50% # Reads before turning the bus around for writes
system.mem_ctrls.rdPerTurnAround::48-63             1      1.56%     89.06% # Reads before turning the bus around for writes
system.mem_ctrls.rdPerTurnAround::64-79             1      1.56%     90.62% # Reads before turning the bus around for writes
system.mem_ctrls.rdPerTurnAround::80-95             1      1.56%     92.19% # Reads before turning the bus around for writes
system.mem_ctrls.rdPerTurnAround::144-159            1      1.56%     93.75% # Reads before turning the bus around for writes
system.mem_ctrls.rdPerTurnAround::176-191            1      1.56%     95.31% # Reads before turning the bus around for writes
system.mem_ctrls.rdPerTurnAround::224-239            2      3.12%     98.44% # Reads before turning the bus around for writes
system.mem_ctrls.rdPerTurnAround::256-271            1      1.56%    100.00% # Reads before turning the bus around for writes
system.mem_ctrls.rdPerTurnAround::total            64                       # Reads before turning the bus around for writes
system.mem_ctrls.wrPerTurnAround::samples           64                       # Writes before turning the bus around for reads
system.mem_ctrls.wrPerTurnAround::mean      16.437500                       # Writes before turning the bus around for reads
system.mem_ctrls.wrPerTurnAround::gmean     16.414329                       # Writes before turning the bus around for reads
system.mem_ctrls.wrPerTurnAround::stdev      0.906327                       # Writes before turning the bus around for reads
system.mem_ctrls.wrPerTurnAround::16               51     79.69%     79.69% # Writes before turning the bus around for reads
system.mem_ctrls.wrPerTurnAround::17                1      1.56%     81.25% # Writes before turning the bus around for reads
system.mem_ctrls.wrPerTurnAround::18                9     14.06%     95.31% # Writes before turning the bus around for reads
system.mem_ctrls.wrPerTurnAround::19                3      4.69%    100.00% # Writes before turning the bus around for reads
system.mem_ctrls.wrPerTurnAround::total            64                       # Writes before turning the bus around for reads
system.mem_ctrls.bytesReadDRAM                 163712                       # Total number of bytes read from DRAM
system.mem_ctrls.bytesReadWrQ                  427200                       # Total number of bytes read from write queue
system.mem_ctrls.bytesWritten                   67328                       # Total number of bytes written to DRAM
system.mem_ctrls.bytesReadSys                  590912                       # Total read bytes from the system interface side
system.mem_ctrls.bytesWrittenSys               489920                       # Total written bytes from the system interface side
system.mem_ctrls.avgRdBW                         1.65                       # Average DRAM read bandwidth in MiByte/s
system.mem_ctrls.avgWrBW                         0.68                       # Average achieved write bandwidth in MiByte/s
system.mem_ctrls.avgRdBWSys                      5.95                       # Average system read bandwidth in MiByte/s
system.mem_ctrls.avgWrBWSys                      4.94                       # Average system write bandwidth in MiByte/s
system.mem_ctrls.peakBW                      12800.00                       # Theoretical peak bandwidth in MiByte/s
system.mem_ctrls.busUtil                         0.02                       # Data bus utilization in percentage
system.mem_ctrls.busUtilRead                     0.01                       # Data bus utilization in percentage for reads
system.mem_ctrls.busUtilWrite                    0.01                       # Data bus utilization in percentage for writes
system.mem_ctrls.totGap                   99262529000                       # Total gap between requests
system.mem_ctrls.avgGap                    5877695.94                       # Average gap between requests
system.mem_ctrls.masterReadBytes::.cpu.inst        94144                       # Per-master bytes read from memory
system.mem_ctrls.masterReadBytes::.cpu.data        69568                       # Per-master bytes read from memory
system.mem_ctrls.masterWriteBytes::.writebacks        67328                       # Per-master bytes write to memory
system.mem_ctrls.masterReadRate::.cpu.inst 948434.352428449434                       # Per-master bytes read from memory rate (Bytes/sec)
system.mem_ctrls.masterReadRate::.cpu.data 700848.498361471458                       # Per-master bytes read from memory rate (Bytes/sec)
system.mem_ctrls.masterWriteRate::.writebacks 678282.079370991676                       # Per-master bytes write to memory rate (Bytes/sec)
system.mem_ctrls.masterReadAccesses::.cpu.inst         8121                       # Per-master read serviced memory accesses
system.mem_ctrls.masterReadAccesses::.cpu.data         1112                       # Per-master read serviced memory accesses
system.mem_ctrls.masterWriteAccesses::.writebacks         7655                       # Per-master write serviced memory accesses
system.mem_ctrls.masterReadTotalLat::.cpu.inst     43508500                       # Per-master read total memory access latency
system.mem_ctrls.masterReadTotalLat::.cpu.data     31427750                       # Per-master read total memory access latency
system.mem_ctrls.masterWriteTotalLat::.writebacks 3028344333250                       # Per-master write total memory access latency
system.mem_ctrls.masterReadAvgLat::.cpu.inst      5357.53                       # Per-master read average memory access latency
system.mem_ctrls.masterReadAvgLat::.cpu.data     28262.37                       # Per-master read average memory access latency
system.mem_ctrls.masterWriteAvgLat::.writebacks 395603440.01                       # Per-master write average memory access latency
system.mem_ctrls.pageHitRate                    74.49                       # Row buffer hit rate, read and write combined
system.mem_ctrls.rank1.actEnergy               956760                       # Energy for activate commands per rank (pJ)
system.mem_ctrls.rank1.preEnergy               497145                       # Energy for precharge commands per rank (pJ)
system.mem_ctrls.rank1.readEnergy             2598960                       # Energy for read commands per rank (pJ)
system.mem_ctrls.rank1.writeEnergy            1456380                       # Energy for write commands per rank (pJ)
system.mem_ctrls.rank1.refreshEnergy     7835430720.000001                       # Energy for refresh commands per rank (pJ)
system.mem_ctrls.rank1.actBackEnergy       1498201110                       # Energy for active background per rank (pJ)
system.mem_ctrls.rank1.preBackEnergy      36855171360                       # Energy for precharge background per rank (pJ)
system.mem_ctrls.rank1.actPowerDownEnergy            0                       # Energy for active power-down per rank (pJ)
system.mem_ctrls.rank1.prePowerDownEnergy            0                       # Energy for precharge power-down per rank (pJ)
system.mem_ctrls.rank1.selfRefreshEnergy            0                       # Energy for self refresh per rank (pJ)
system.mem_ctrls.rank1.totalEnergy        46194312435                       # Total energy per rank (pJ)
system.mem_ctrls.rank1.averagePower        465.375093                       # Core power per rank (mW)
system.mem_ctrls.rank1.totalIdleTime                0                       # Total Idle time Per DRAM Rank
system.mem_ctrls.rank1.memoryStateTime::IDLE  95801299500                       # Time in different power states
system.mem_ctrls.rank1.memoryStateTime::REF   3314480000                       # Time in different power states
system.mem_ctrls.rank1.memoryStateTime::SREF            0                       # Time in different power states
system.mem_ctrls.rank1.memoryStateTime::PRE_PDN            0                       # Time in different power states
system.mem_ctrls.rank1.memoryStateTime::ACT    146757500                       # Time in different power states
system.mem_ctrls.rank1.memoryStateTime::ACT_PDN            0                       # Time in different power states
system.mem_ctrls.rank0.actEnergy              5447820                       # Energy for activate commands per rank (pJ)
system.mem_ctrls.rank0.preEnergy              2872815                       # Energy for precharge commands per rank (pJ)
system.mem_ctrls.rank0.readEnergy            15665160                       # Energy for read commands per rank (pJ)
system.mem_ctrls.rank0.writeEnergy            4035060                       # Energy for write commands per rank (pJ)
system.mem_ctrls.rank0.refreshEnergy     7835430720.000001                       # Energy for refresh commands per rank (pJ)
system.mem_ctrls.rank0.actBackEnergy       2133591510                       # Energy for active background per rank (pJ)
system.mem_ctrls.rank0.preBackEnergy      36320105760                       # Energy for precharge background per rank (pJ)
system.mem_ctrls.rank0.actPowerDownEnergy            0                       # Energy for active power-down per rank (pJ)
system.mem_ctrls.rank0.prePowerDownEnergy            0                       # Energy for precharge power-down per rank (pJ)
system.mem_ctrls.rank0.selfRefreshEnergy            0                       # Energy for self refresh per rank (pJ)
system.mem_ctrls.rank0.totalEnergy        46317148845                       # Total energy per rank (pJ)
system.mem_ctrls.rank0.averagePower        466.612584                       # Core power per rank (mW)
system.mem_ctrls.rank0.totalIdleTime                0                       # Total Idle time Per DRAM Rank
system.mem_ctrls.rank0.memoryStateTime::IDLE  94404947000                       # Time in different power states
system.mem_ctrls.rank0.memoryStateTime::REF   3314480000                       # Time in different power states
system.mem_ctrls.rank0.memoryStateTime::SREF            0                       # Time in different power states
system.mem_ctrls.rank0.memoryStateTime::PRE_PDN            0                       # Time in different power states
system.mem_ctrls.rank0.memoryStateTime::ACT   1543110000                       # Time in different power states
system.mem_ctrls.rank0.memoryStateTime::ACT_PDN            0                       # Time in different power states
system.cpu_clk_domain.clock                       500                       # Clock period in ticks
system.cpu.numPwrStateTransitions                   1                       # Number of power state transitions
system.cpu.pwrStateResidencyTicks::ON     99262537000                       # Cumulative time (in ticks) in various power states
system.cpu.icache.pwrStateResidencyTicks::UNDEFINED  99262537000                       # Cumulative time (in ticks) in various power states
system.cpu.icache.demand_hits::.cpu.inst     61448131                       # number of demand (read+write) hits
system.cpu.icache.demand_hits::total         61448131                       # number of demand (read+write) hits
system.cpu.icache.overall_hits::.cpu.inst     61448131                       # number of overall hits
system.cpu.icache.overall_hits::total        61448131                       # number of overall hits
system.cpu.icache.demand_misses::.cpu.inst         8121                       # number of demand (read+write) misses
system.cpu.icache.demand_misses::total           8121                       # number of demand (read+write) misses
system.cpu.icache.overall_misses::.cpu.inst         8121                       # number of overall misses
system.cpu.icache.overall_misses::total          8121                       # number of overall misses
system.cpu.icache.demand_miss_latency::.cpu.inst    238314500                       # number of demand (read+write) miss cycles
system.cpu.icache.demand_miss_latency::total    238314500                       # number of demand (read+write) miss cycles
system.cpu.icache.overall_miss_latency::.cpu.inst    238314500                       # number of overall miss cycles
system.cpu.icache.overall_miss_latency::total    238314500                       # number of overall miss cycles
system.cpu.icache.demand_accesses::.cpu.inst     61456252                       # number of demand (read+write) accesses
system.cpu.icache.demand_accesses::total     61456252                       # number of demand (read+write) accesses
system.cpu.icache.overall_accesses::.cpu.inst     61456252                       # number of overall (read+write) accesses
system.cpu.icache.overall_accesses::total     61456252                       # number of overall (read+write) accesses
system.cpu.icache.demand_miss_rate::.cpu.inst     0.000132                       # miss rate for demand accesses
system.cpu.icache.demand_miss_rate::total     0.000132                       # miss rate for demand accesses
system.cpu.icache.overall_miss_rate::.cpu.inst     0.000132                       # miss rate for overall accesses
system.cpu.icache.overall_miss_rate::total     0.000132                       # miss rate for overall accesses
system.cpu.icache.demand_avg_miss_latency::.cpu.inst 29345.462381                       # average overall miss latency
system.cpu.icache.demand_avg_miss_latency::total 29345.462381                       # average overall miss latency
system.cpu.icache.overall_avg_miss_latency::.cpu.inst 29345.462381                       # average overall miss latency
system.cpu.icache.overall_avg_miss_latency::total 29345.462381                       # average overall miss latency
system.cpu.icache.blocked_cycles::no_mshrs            0                       # number of cycles access was blocked
system.cpu.icache.blocked_cycles::no_targets            0                       # number of cycles access was blocked
system.cpu.icache.blocked::no_mshrs                 0                       # number of cycles access was blocked
system.cpu.icache.blocked::no_targets               0                       # number of cycles access was blocked
system.cpu.icache.avg_blocked_cycles::no_mshrs          nan                       # average number of cycles each access was blocked
system.cpu.icache.avg_blocked_cycles::no_targets          nan                       # average number of cycles each access was blocked
system.cpu.icache.writebacks::.writebacks         7993                       # number of writebacks
system.cpu.icache.writebacks::total              7993                       # number of writebacks
system.cpu.icache.demand_mshr_misses::.cpu.inst         8121                       # number of demand (read+write) MSHR misses
system.cpu.icache.demand_mshr_misses::total         8121                       # number of demand (read+write) MSHR misses
system.cpu.icache.overall_mshr_misses::.cpu.inst         8121                       # number of overall MSHR misses
system.cpu.icache.overall_mshr_misses::total         8121                       # number of overall MSHR misses
system.cpu.icache.demand_mshr_miss_latency::.cpu.inst    230193500                       # number of demand (read+write) MSHR miss cycles
system.cpu.icache.demand_mshr_miss_latency::total    230193500                       # number of demand (read+write) MSHR miss cycles
system.cpu.icache.overall_mshr_miss_latency::.cpu.inst    230193500                       # number of overall MSHR miss cycles
system.cpu.icache.overall_mshr_miss_latency::total    230193500                       # number of overall MSHR miss cycles
system.cpu.icache.demand_mshr_miss_rate::.cpu.inst     0.000132                       # mshr miss rate for demand accesses
system.cpu.icache.demand_mshr_miss_rate::total     0.000132                       # mshr miss rate for demand accesses
system.cpu.icache.overall_mshr_miss_rate::.cpu.inst     0.000132                       # mshr miss rate for overall accesses
system.cpu.icache.overall_mshr_miss_rate::total     0.000132                       # mshr miss rate for overall accesses
system.cpu.icache.demand_avg_mshr_miss_latency::.cpu.inst 28345.462381                       # average overall mshr miss latency
system.cpu.icache.demand_avg_mshr_miss_latency::total 28345.462381                       # average overall mshr miss latency
system.cpu.icache.overall_avg_mshr_miss_latency::.cpu.inst 28345.462381                       # average overall mshr miss latency
system.cpu.icache.overall_avg_mshr_miss_latency::total 28345.462381                       # average overall mshr miss latency
system.cpu.icache.replacements                   7993                       # number of replacements
system.cpu.icache.ReadReq_hits::.cpu.inst     61448131                       # number of ReadReq hits
system.cpu.icache.ReadReq_hits::total        61448131                       # number of ReadReq hits
system.cpu.icache.ReadReq_misses::.cpu.inst         8121                       # number of ReadReq misses
system.cpu.icache.ReadReq_misses::total          8121                       # number of ReadReq misses
system.cpu.icache.ReadReq_miss_latency::.cpu.inst    238314500                       # number of ReadReq miss cycles
system.cpu.icache.ReadReq_miss_latency::total    238314500                       # number of ReadReq miss cycles
system.cpu.icache.ReadReq_accesses::.cpu.inst     61456252                       # number of ReadReq accesses(hits+misses)
system.cpu.icache.ReadReq_accesses::total     61456252                       # number of ReadReq accesses(hits+misses)
system.cpu.icache.ReadReq_miss_rate::.cpu.inst     0.000132                       # miss rate for ReadReq accesses
system.cpu.icache.ReadReq_miss_rate::total     0.000132                       # miss rate for ReadReq accesses
system.cpu.icache.ReadReq_avg_miss_latency::.cpu.inst 29345.462381                       # average ReadReq miss latency
system.cpu.icache.ReadReq_avg_miss_latency::total 29345.462381                       # average ReadReq miss latency
system.cpu.icache.ReadReq_mshr_misses::.cpu.inst         8121                       # number of ReadReq MSHR misses
system.cpu.icache.ReadReq_mshr_misses::total         8121                       # number of ReadReq MSHR misses
system.cpu.icache.ReadReq_mshr_miss_latency::.cpu.inst    230193500                       # number of ReadReq MSHR miss cycles
system.cpu.icache.ReadReq_mshr_miss_latency::total    230193500                       # number of ReadReq MSHR miss cycles
system.cpu.icache.ReadReq_mshr_miss_rate::.cpu.inst     0.000132                       # mshr miss rate for ReadReq accesses
system.cpu.icache.ReadReq_mshr_miss_rate::total     0.000132                       # mshr miss rate for ReadReq accesses
system.cpu.icache.ReadReq_avg_mshr_miss_latency::.cpu.inst 28345.462381                       # average ReadReq mshr miss latency
system.cpu.icache.ReadReq_avg_mshr_miss_latency::total 28345.462381                       # average ReadReq mshr miss latency
system.cpu.icache.tags.pwrStateResidencyTicks::UNDEFINED  99262537000                       # Cumulative time (in ticks) in various power states
system.cpu.icache.tags.tagsinuse           127.984815                       # Cycle average of tags in use
system.cpu.icache.tags.total_refs            61456252                       # Total number of references to valid blocks.
system.cpu.icache.tags.sampled_refs              8121                       # Sample count of references to valid blocks.
system.cpu.icache.tags.avg_refs           7567.571974                       # Average number of references to valid blocks.
system.cpu.icache.tags.warmup_cycle             77000                       # Cycle when the warmup percentage was hit.
system.cpu.icache.tags.occ_blocks::.cpu.inst   127.984815                       # Average occupied blocks per requestor
system.cpu.icache.tags.occ_percent::.cpu.inst     0.999881                       # Average percentage of cache occupancy
system.cpu.icache.tags.occ_percent::total     0.999881                       # Average percentage of cache occupancy
system.cpu.icache.tags.occ_task_id_blocks::1024          128                       # Occupied blocks per task id
system.cpu.icache.tags.age_task_id_blocks_1024::0           80                       # Occupied blocks per task id
system.cpu.icache.tags.age_task_id_blocks_1024::1           47                       # Occupied blocks per task id
system.cpu.icache.tags.age_task_id_blocks_1024::4            1                       # Occupied blocks per task id
system.cpu.icache.tags.occ_task_id_percent::1024            1                       # Percentage of cache occupancy per task id
system.cpu.icache.tags.tag_accesses         122920625                       # Number of tag accesses
system.cpu.icache.tags.data_accesses        122920625                       # Number of data accesses
system.cpu.dtb.walker.pwrStateResidencyTicks::UNDEFINED  99262537000                       # Cumulative time (in ticks) in various power states
system.cpu.dtb.stage2_mmu.stage2_tlb.walker.pwrStateResidencyTicks::UNDEFINED  99262537000                       # Cumulative time (in ticks) in various power states
system.cpu.itb.walker.pwrStateResidencyTicks::UNDEFINED  99262537000                       # Cumulative time (in ticks) in various power states
system.cpu.itb.stage2_mmu.stage2_tlb.walker.pwrStateResidencyTicks::UNDEFINED  99262537000                       # Cumulative time (in ticks) in various power states
system.cpu.dcache.pwrStateResidencyTicks::UNDEFINED  99262537000                       # Cumulative time (in ticks) in various power states
system.cpu.dcache.demand_hits::.cpu.data     37478918                       # number of demand (read+write) hits
system.cpu.dcache.demand_hits::total         37478918                       # number of demand (read+write) hits
system.cpu.dcache.overall_hits::.cpu.data     37478918                       # number of overall hits
system.cpu.dcache.overall_hits::total        37478918                       # number of overall hits
system.cpu.dcache.demand_misses::.cpu.data         1112                       # number of demand (read+write) misses
system.cpu.dcache.demand_misses::total           1112                       # number of demand (read+write) misses
system.cpu.dcache.overall_misses::.cpu.data         1112                       # number of overall misses
system.cpu.dcache.overall_misses::total          1112                       # number of overall misses
system.cpu.dcache.demand_miss_latency::.cpu.data     67364000                       # number of demand (read+write) miss cycles
system.cpu.dcache.demand_miss_latency::total     67364000                       # number of demand (read+write) miss cycles
system.cpu.dcache.overall_miss_latency::.cpu.data     67364000                       # number of overall miss cycles
system.cpu.dcache.overall_miss_latency::total     67364000                       # number of overall miss cycles
system.cpu.dcache.demand_accesses::.cpu.data     37480030                       # number of demand (read+write) accesses
system.cpu.dcache.demand_accesses::total     37480030                       # number of demand (read+write) accesses
system.cpu.dcache.overall_accesses::.cpu.data     37480030                       # number of overall (read+write) accesses
system.cpu.dcache.overall_accesses::total     37480030                       # number of overall (read+write) accesses
system.cpu.dcache.demand_miss_rate::.cpu.data     0.000030                       # miss rate for demand accesses
system.cpu.dcache.demand_miss_rate::total     0.000030                       # miss rate for demand accesses
system.cpu.dcache.overall_miss_rate::.cpu.data     0.000030                       # miss rate for overall accesses
system.cpu.dcache.overall_miss_rate::total     0.000030                       # miss rate for overall accesses
system.cpu.dcache.demand_avg_miss_latency::.cpu.data 60579.136691                       # average overall miss latency
system.cpu.dcache.demand_avg_miss_latency::total 60579.136691                       # average overall miss latency
system.cpu.dcache.overall_avg_miss_latency::.cpu.data 60579.136691                       # average overall miss latency
system.cpu.dcache.overall_avg_miss_latency::total 60579.136691                       # average overall miss latency
system.cpu.dcache.blocked_cycles::no_mshrs            0                       # number of cycles access was blocked
system.cpu.dcache.blocked_cycles::no_targets            0                       # number of cycles access was blocked
system.cpu.dcache.blocked::no_mshrs                 0                       # number of cycles access was blocked
system.cpu.dcache.blocked::no_targets               0                       # number of cycles access was blocked
system.cpu.dcache.avg_blocked_cycles::no_mshrs          nan                       # average number of cycles each access was blocked
system.cpu.dcache.avg_blocked_cycles::no_targets          nan                       # average number of cycles each access was blocked
system.cpu.dcache.writebacks::.writebacks          212                       # number of writebacks
system.cpu.dcache.writebacks::total               212                       # number of writebacks
system.cpu.dcache.demand_mshr_misses::.cpu.data         1112                       # number of demand (read+write) MSHR misses
system.cpu.dcache.demand_mshr_misses::total         1112                       # number of demand (read+write) MSHR misses
system.cpu.dcache.overall_mshr_misses::.cpu.data         1112                       # number of overall MSHR misses
system.cpu.dcache.overall_mshr_misses::total         1112                       # number of overall MSHR misses
system.cpu.dcache.demand_mshr_miss_latency::.cpu.data     66252000                       # number of demand (read+write) MSHR miss cycles
system.cpu.dcache.demand_mshr_miss_latency::total     66252000                       # number of demand (read+write) MSHR miss cycles
system.cpu.dcache.overall_mshr_miss_latency::.cpu.data     66252000                       # number of overall MSHR miss cycles
system.cpu.dcache.overall_mshr_miss_latency::total     66252000                       # number of overall MSHR miss cycles
system.cpu.dcache.demand_mshr_miss_rate::.cpu.data     0.000030                       # mshr miss rate for demand accesses
system.cpu.dcache.demand_mshr_miss_rate::total     0.000030                       # mshr miss rate for demand accesses
system.cpu.dcache.overall_mshr_miss_rate::.cpu.data     0.000030                       # mshr miss rate for overall accesses
system.cpu.dcache.overall_mshr_miss_rate::total     0.000030                       # mshr miss rate for overall accesses
system.cpu.dcache.demand_avg_mshr_miss_latency::.cpu.data 59579.136691                       # average overall mshr miss latency
system.cpu.dcache.demand_avg_mshr_miss_latency::total 59579.136691                       # average overall mshr miss latency
system.cpu.dcache.overall_avg_mshr_miss_latency::.cpu.data 59579.136691                       # average overall mshr miss latency
system.cpu.dcache.overall_avg_mshr_miss_latency::total 59579.136691                       # average overall mshr miss latency
system.cpu.dcache.replacements                    600                       # number of replacements
system.cpu.dcache.ReadReq_hits::.cpu.data     25573594                       # number of ReadReq hits
system.cpu.dcache.ReadReq_hits::total        25573594                       # number of ReadReq hits
system.cpu.dcache.ReadReq_misses::.cpu.data          624                       # number of ReadReq misses
system.cpu.dcache.ReadReq_misses::total           624                       # number of ReadReq misses
system.cpu.dcache.ReadReq_miss_latency::.cpu.data     39669500                       # number of ReadReq miss cycles
system.cpu.dcache.ReadReq_miss_latency::total     39669500                       # number of ReadReq miss cycles
system.cpu.dcache.ReadReq_accesses::.cpu.data     25574218                       # number of ReadReq accesses(hits+misses)
system.cpu.dcache.ReadReq_accesses::total     25574218                       # number of ReadReq accesses(hits+misses)
system.cpu.dcache.ReadReq_miss_rate::.cpu.data     0.000024                       # miss rate for ReadReq accesses
system.cpu.dcache.ReadReq_miss_rate::total     0.000024                       # miss rate for ReadReq accesses
system.cpu.dcache.ReadReq_avg_miss_latency::.cpu.data 63572.916667                       # average ReadReq miss latency
system.cpu.dcache.ReadReq_avg_miss_latency::total 63572.916667                       # average ReadReq miss latency
system.cpu.dcache.ReadReq_mshr_misses::.cpu.data          624                       # number of ReadReq MSHR misses
system.cpu.dcache.ReadReq_mshr_misses::total          624                       # number of ReadReq MSHR misses
system.cpu.dcache.ReadReq_mshr_miss_latency::.cpu.data     39045500                       # number of ReadReq MSHR miss cycles
system.cpu.dcache.ReadReq_mshr_miss_latency::total     39045500                       # number of ReadReq MSHR miss cycles
system.cpu.dcache.ReadReq_mshr_miss_rate::.cpu.data     0.000024                       # mshr miss rate for ReadReq accesses
system.cpu.dcache.ReadReq_mshr_miss_rate::total     0.000024                       # mshr miss rate for ReadReq accesses
system.cpu.dcache.ReadReq_avg_mshr_miss_latency::.cpu.data 62572.916667                       # average ReadReq mshr miss latency
system.cpu.dcache.ReadReq_avg_mshr_miss_latency::total 62572.916667                       # average ReadReq mshr miss latency
system.cpu.dcache.WriteReq_hits::.cpu.data     11905324                       # number of WriteReq hits
system.cpu.dcache.WriteReq_hits::total       11905324                       # number of WriteReq hits
system.cpu.dcache.WriteReq_misses::.cpu.data          488                       # number of WriteReq misses
system.cpu.dcache.WriteReq_misses::total          488                       # number of WriteReq misses
system.cpu.dcache.WriteReq_miss_latency::.cpu.data     27694500                       # number of WriteReq miss cycles
system.cpu.dcache.WriteReq_miss_latency::total     27694500                       # number of WriteReq miss cycles
system.cpu.dcache.WriteReq_accesses::.cpu.data     11905812                       # number of WriteReq accesses(hits+misses)
system.cpu.dcache.WriteReq_accesses::total     11905812                       # number of WriteReq accesses(hits+misses)
system.cpu.dcache.WriteReq_miss_rate::.cpu.data     0.000041                       # miss rate for WriteReq accesses
system.cpu.dcache.WriteReq_miss_rate::total     0.000041                       # miss rate for WriteReq accesses
system.cpu.dcache.WriteReq_avg_miss_latency::.cpu.data 56751.024590                       # average WriteReq miss latency
system.cpu.dcache.WriteReq_avg_miss_latency::total 56751.024590                       # average WriteReq miss latency
system.cpu.dcache.WriteReq_mshr_misses::.cpu.data          488                       # number of WriteReq MSHR misses
system.cpu.dcache.WriteReq_mshr_misses::total          488                       # number of WriteReq MSHR misses
system.cpu.dcache.WriteReq_mshr_miss_latency::.cpu.data     27206500                       # number of WriteReq MSHR miss cycles
system.cpu.dcache.WriteReq_mshr_miss_latency::total     27206500                       # number of WriteReq MSHR miss cycles
system.cpu.dcache.WriteReq_mshr_miss_rate::.cpu.data     0.000041                       # mshr miss rate for WriteReq accesses
system.cpu.dcache.WriteReq_mshr_miss_rate::total     0.000041                       # mshr miss rate for WriteReq accesses
system.cpu.dcache.WriteReq_avg_mshr_miss_latency::.cpu.data 55751.024590                       # average WriteReq mshr miss latency
system.cpu.dcache.WriteReq_avg_mshr_miss_latency::total 55751.024590                       # average WriteReq mshr miss latency
system.cpu.dcache.LoadLockedReq_hits::.cpu.data           46                       # number of LoadLockedReq hits
system.cpu.dcache.LoadLockedReq_hits::total           46                       # number of LoadLockedReq hits
system.cpu.dcache.LoadLockedReq_accesses::.cpu.data           46                       # number of LoadLockedReq accesses(hits+misses)
system.cpu.dcache.LoadLockedReq_accesses::total           46                       # number of LoadLockedReq accesses(hits+misses)
system.cpu.dcache.StoreCondReq_hits::.cpu.data           46                       # number of StoreCondReq hits
system.cpu.dcache.StoreCondReq_hits::total           46                       # number of StoreCondReq hits
system.cpu.dcache.StoreCondReq_accesses::.cpu.data           46                       # number of StoreCondReq accesses(hits+misses)
system.cpu.dcache.StoreCondReq_accesses::total           46                       # number of StoreCondReq accesses(hits+misses)
system.cpu.dcache.tags.pwrStateResidencyTicks::UNDEFINED  99262537000                       # Cumulative time (in ticks) in various power states
system.cpu.dcache.tags.tagsinuse           496.374743                       # Cycle average of tags in use
system.cpu.dcache.tags.total_refs            37480122                       # Total number of references to valid blocks.
system.cpu.dcache.tags.sampled_refs              1112                       # Sample count of references to valid blocks.
system.cpu.dcache.tags.avg_refs          33705.145683                       # Average number of references to valid blocks.
system.cpu.dcache.tags.warmup_cycle            148000                       # Cycle when the warmup percentage was hit.
system.cpu.dcache.tags.occ_blocks::.cpu.data   496.374743                       # Average occupied blocks per requestor
system.cpu.dcache.tags.occ_percent::.cpu.data     0.969482                       # Average percentage of cache occupancy
system.cpu.dcache.tags.occ_percent::total     0.969482                       # Average percentage of cache occupancy
system.cpu.dcache.tags.occ_task_id_blocks::1024          512                       # Occupied blocks per task id
system.cpu.dcache.tags.age_task_id_blocks_1024::0           41                       # Occupied blocks per task id
system.cpu.dcache.tags.age_task_id_blocks_1024::1          161                       # Occupied blocks per task id
system.cpu.dcache.tags.age_task_id_blocks_1024::3            2                       # Occupied blocks per task id
system.cpu.dcache.tags.age_task_id_blocks_1024::4          308                       # Occupied blocks per task id
system.cpu.dcache.tags.occ_task_id_percent::1024            1                       # Percentage of cache occupancy per task id
system.cpu.dcache.tags.tag_accesses          74961356                       # Number of tag accesses
system.cpu.dcache.tags.data_accesses         74961356                       # Number of data accesses

---------- End Simulation Statistics   ----------
