
---------- Begin Simulation Statistics ----------
final_tick                                99475815000                       # Number of ticks from beginning of simulation (restored from checkpoints and never reset)
host_inst_rate                                 902069                       # Simulator instruction rate (inst/s)
host_mem_usage                                 698380                       # Number of bytes of host memory used
host_op_rate                                   905356                       # Simulator op (including micro ops) rate (op/s)
host_seconds                                    68.13                       # Real time elapsed on the host
host_tick_rate                             1460131244                       # Simulator tick rate (ticks/s)
sim_freq                                 1000000000000                       # Frequency of simulated ticks
sim_insts                                    61456032                       # Number of instructions simulated
sim_ops                                      61680039                       # Number of ops (including micro ops) simulated
sim_seconds                                  0.099476                       # Number of seconds simulated
sim_ticks                                 99475815000                       # Number of ticks simulated
system.cpu.Branches                           2313777                       # Number of branches fetched
system.cpu.committedInsts                    61456032                       # Number of instructions committed
system.cpu.committedOps                      61680039                       # Number of ops (including micro ops) committed
system.cpu.dtb.accesses                             0                       # DTB accesses
system.cpu.dtb.align_faults                         0                       # Number of TLB faults due to alignment restrictions
system.cpu.dtb.domain_faults                        0                       # Number of TLB faults due to domain restrictions
system.cpu.dtb.flush_entries                        0                       # Number of entries that have been flushed from TLB
system.cpu.dtb.flush_tlb                            0                       # Number of times complete TLB was flushed
system.cpu.dtb.flush_tlb_asid                       0                       # Number of times TLB was flushed by ASID
system.cpu.dtb.flush_tlb_mva                        0                       # Number of times TLB was flushed by MVA
system.cpu.dtb.flush_tlb_mva_asid                   0                       # Number of times TLB was flushed by MVA & ASID
system.cpu.dtb.hits                                 0                       # DTB hits
system.cpu.dtb.inst_accesses                        0                       # ITB inst accesses
system.cpu.dtb.inst_hits                            0                       # ITB inst hits
system.cpu.dtb.inst_misses                          0                       # ITB inst misses
system.cpu.dtb.misses                               0                       # DTB misses
system.cpu.dtb.perms_faults                         0                       # Number of TLB faults due to permissions restrictions
system.cpu.dtb.prefetch_faults                      0                       # Number of TLB faults due to prefetch
system.cpu.dtb.read_accesses                        0                       # DTB read accesses
system.cpu.dtb.read_hits                            0                       # DTB read hits
system.cpu.dtb.read_misses                          0                       # DTB read misses
system.cpu.dtb.stage2_mmu.stage2_tlb.accesses            0                       # DTB accesses
system.cpu.dtb.stage2_mmu.stage2_tlb.align_faults            0                       # Number of TLB faults due to alignment restrictions
system.cpu.dtb.stage2_mmu.stage2_tlb.domain_faults            0                       # Number of TLB faults due to domain restrictions
system.cpu.dtb.stage2_mmu.stage2_tlb.flush_entries            0                       # Number of entries that have been flushed from TLB
system.cpu.dtb.stage2_mmu.stage2_tlb.flush_tlb            0                       # Number of times complete TLB was flushed
system.cpu.dtb.stage2_mmu.stage2_tlb.flush_tlb_asid            0                       # Number of times TLB was flushed by ASID
system.cpu.dtb.stage2_mmu.stage2_tlb.flush_tlb_mva            0                       # Number of times TLB was flushed by MVA
system.cpu.dtb.stage2_mmu.stage2_tlb.flush_tlb_mva_asid            0                       # Number of times TLB was flushed by MVA & ASID
system.cpu.dtb.stage2_mmu.stage2_tlb.hits            0                       # DTB hits
system.cpu.dtb.stage2_mmu.stage2_tlb.inst_accesses            0                       # ITB inst accesses
system.cpu.dtb.stage2_mmu.stage2_tlb.inst_hits            0                       # ITB inst hits
system.cpu.dtb.stage2_mmu.stage2_tlb.inst_misses            0                       # ITB inst misses
system.cpu.dtb.stage2_mmu.stage2_tlb.misses            0                       # DTB misses
system.cpu.dtb.stage2_mmu.stage2_tlb.perms_faults            0                       # Number of TLB faults due to permissions restrictions
system.cpu.dtb.stage2_mmu.stage2_tlb.prefetch_faults            0                       # Number of TLB faults due to prefetch
system.cpu.dtb.stage2_mmu.stage2_tlb.read_accesses            0                       # DTB read accesses
system.cpu.dtb.stage2_mmu.stage2_tlb.read_hits            0                       # DTB read hits
system.cpu.dtb.stage2_mmu.stage2_tlb.read_misses            0                       # DTB read misses
system.cpu.dtb.stage2_mmu.stage2_tlb.walker.walkRequestOrigin_Requested::Data            0                       # Table walker requests started/completed, data/inst
system.cpu.dtb.stage2_mmu.stage2_tlb.walker.walkRequestOrigin_Requested::Inst            0                       # Table walker requests started/completed, data/inst
system.cpu.dtb.stage2_mmu.stage2_tlb.walker.walkRequestOrigin_Requested::total            0                       # Table walker requests started/completed, data/inst
system.cpu.dtb.stage2_mmu.stage2_tlb.walker.walkRequestOrigin_Completed::Data            0                       # Table walker requests started/completed, data/inst
system.cpu.dtb.stage2_mmu.stage2_tlb.walker.walkRequestOrigin_Completed::Inst            0                       # Table walker requests started/completed, data/inst
system.cpu.dtb.stage2_mmu.stage2_tlb.walker.walkRequestOrigin_Completed::total            0                       # Table walker requests started/completed, data/inst
system.cpu.dtb.stage2_mmu.stage2_tlb.walker.walkRequestOrigin::total            0                       # Table walker requests started/completed, data/inst
system.cpu.dtb.stage2_mmu.stage2_tlb.walker.walks            0                       # Table walker walks requested
system.cpu.dtb.stage2_mmu.stage2_tlb.write_accesses            0                       # DTB write accesses
system.cpu.dtb.stage2_mmu.stage2_tlb.write_hits            0                       # DTB write hits
system.cpu.dtb.stage2_mmu.stage2_tlb.write_misses            0                       # DTB write misses
system.cpu.dtb.walker.walkRequestOrigin_Requested::Data            0                       # Table walker requests started/completed, data/inst
system.cpu.dtb.walker.walkRequestOrigin_Requested::Inst            0                       # Table walker requests started/completed, data/inst
system.cpu.dtb.walker.walkRequestOrigin_Requested::total            0                       # Table walker requests started/completed, data/inst
system.cpu.dtb.walker.walkRequestOrigin_Completed::Data            0                       # Table walker requests started/completed, data/inst
system.cpu.dtb.walker.walkRequestOrigin_Completed::Inst            0                       # Table walker requests started/completed, data/inst
system.cpu.dtb.walker.walkRequestOrigin_Completed::total            0                       # Table walker requests started/completed, data/inst
system.cpu.dtb.walker.walkRequestOrigin::total            0                       # Table walker requests started/completed, data/inst
system.cpu.dtb.walker.walks                         0                       # Table walker walks requested
system.cpu.dtb.write_accesses                       0                       # DTB write accesses
system.cpu.dtb.write_hits                           0                       # DTB write hits
system.cpu.dtb.write_misses                         0                       # DTB write misses
system.cpu.idle_fraction                     0.000000                       # Percentage of idle cycles
system.cpu.itb.accesses                             0                       # DTB accesses
system.cpu.itb.align_faults                         0                       # Number of TLB faults due to alignment restrictions
system.cpu.itb.domain_faults                        0                       # Number of TLB faults due to domain restrictions
system.cpu.itb.flush_entries                        0                       # Number of entries that have been flushed from TLB
system.cpu.itb.flush_tlb                            0                       # Number of times complete TLB was flushed
system.cpu.itb.flush_tlb_asid                       0                       # Number of times TLB was flushed by ASID
system.cpu.itb.flush_tlb_mva                        0                       # Number of times TLB was flushed by MVA
system.cpu.itb.flush_tlb_mva_asid                   0                       # Number of times TLB was flushed by MVA & ASID
system.cpu.itb.hits                                 0                       # DTB hits
system.cpu.itb.inst_accesses                        0                       # ITB inst accesses
system.cpu.itb.inst_hits                            0                       # ITB inst hits
system.cpu.itb.inst_misses                          0                       # ITB inst misses
system.cpu.itb.misses                               0                       # DTB misses
system.cpu.itb.perms_faults                         0                       # Number of TLB faults due to permissions restrictions
system.cpu.itb.prefetch_faults                      0                       # Number of TLB faults due to prefetch
system.cpu.itb.read_accesses                        0                       # DTB read accesses
system.cpu.itb.read_hits                            0                       # DTB read hits
system.cpu.itb.read_misses                          0                       # DTB read misses
system.cpu.itb.stage2_mmu.stage2_tlb.accesses            0                       # DTB accesses
system.cpu.itb.stage2_mmu.stage2_tlb.align_faults            0                       # Number of TLB faults due to alignment restrictions
system.cpu.itb.stage2_mmu.stage2_tlb.domain_faults            0                       # Number of TLB faults due to domain restrictions
system.cpu.itb.stage2_mmu.stage2_tlb.flush_entries            0                       # Number of entries that have been flushed from TLB
system.cpu.itb.stage2_mmu.stage2_tlb.flush_tlb            0                       # Number of times complete TLB was flushed
system.cpu.itb.stage2_mmu.stage2_tlb.flush_tlb_asid            0                       # Number of times TLB was flushed by ASID
system.cpu.itb.stage2_mmu.stage2_tlb.flush_tlb_mva            0                       # Number of times TLB was flushed by MVA
system.cpu.itb.stage2_mmu.stage2_tlb.flush_tlb_mva_asid            0                       # Number of times TLB was flushed by MVA & ASID
system.cpu.itb.stage2_mmu.stage2_tlb.hits            0                       # DTB hits
system.cpu.itb.stage2_mmu.stage2_tlb.inst_accesses            0                       # ITB inst accesses
system.cpu.itb.stage2_mmu.stage2_tlb.inst_hits            0                       # ITB inst hits
system.cpu.itb.stage2_mmu.stage2_tlb.inst_misses            0                       # ITB inst misses
system.cpu.itb.stage2_mmu.stage2_tlb.misses            0                       # DTB misses
system.cpu.itb.stage2_mmu.stage2_tlb.perms_faults            0                       # Number of TLB faults due to permissions restrictions
system.cpu.itb.stage2_mmu.stage2_tlb.prefetch_faults            0                       # Number of TLB faults due to prefetch
system.cpu.itb.stage2_mmu.stage2_tlb.read_accesses            0                       # DTB read accesses
system.cpu.itb.stage2_mmu.stage2_tlb.read_hits            0                       # DTB read hits
system.cpu.itb.stage2_mmu.stage2_tlb.read_misses            0                       # DTB read misses
system.cpu.itb.stage2_mmu.stage2_tlb.walker.walkRequestOrigin_Requested::Data            0                       # Table walker requests started/completed, data/inst
system.cpu.itb.stage2_mmu.stage2_tlb.walker.walkRequestOrigin_Requested::Inst            0                       # Table walker requests started/completed, data/inst
system.cpu.itb.stage2_mmu.stage2_tlb.walker.walkRequestOrigin_Requested::total            0                       # Table walker requests started/completed, data/inst
system.cpu.itb.stage2_mmu.stage2_tlb.walker.walkRequestOrigin_Completed::Data            0                       # Table walker requests started/completed, data/inst
system.cpu.itb.stage2_mmu.stage2_tlb.walker.walkRequestOrigin_Completed::Inst            0                       # Table walker requests started/completed, data/inst
system.cpu.itb.stage2_mmu.stage2_tlb.walker.walkRequestOrigin_Completed::total            0                       # Table walker requests started/completed, data/inst
system.cpu.itb.stage2_mmu.stage2_tlb.walker.walkRequestOrigin::total            0                       # Table walker requests started/completed, data/inst
system.cpu.itb.stage2_mmu.stage2_tlb.walker.walks            0                       # Table walker walks requested
system.cpu.itb.stage2_mmu.stage2_tlb.write_accesses            0                       # DTB write accesses
system.cpu.itb.stage2_mmu.stage2_tlb.write_hits            0                       # DTB write hits
system.cpu.itb.stage2_mmu.stage2_tlb.write_misses            0                       # DTB write misses
system.cpu.itb.walker.walkRequestOrigin_Requested::Data            0                       # Table walker requests started/completed, data/inst
system.cpu.itb.walker.walkRequestOrigin_Requested::Inst            0                       # Table walker requests started/completed, data/inst
system.cpu.itb.walker.walkRequestOrigin_Requested::total            0                       # Table walker requests started/completed, data/inst
system.cpu.itb.walker.walkRequestOrigin_Completed::Data            0                       # Table walker requests started/completed, data/inst
system.cpu.itb.walker.walkRequestOrigin_Completed::Inst            0                       # Table walker requests started/completed, data/inst
system.cpu.itb.walker.walkRequestOrigin_Completed::total            0                       # Table walker requests started/completed, data/inst
system.cpu.itb.walker.walkRequestOrigin::total            0                       # Table walker requests started/completed, data/inst
system.cpu.itb.walker.walks                         0                       # Table walker walks requested
system.cpu.itb.write_accesses                       0                       # DTB write accesses
system.cpu.itb.write_hits                           0                       # DTB write hits
system.cpu.itb.write_misses                         0                       # DTB write misses
system.cpu.not_idle_fraction                 1.000000                       # Percentage of non-idle cycles
system.cpu.numCycles                        198951630                       # number of cpu cycles simulated
system.cpu.numWorkItemsCompleted                    0                       # number of work items this cpu completed
system.cpu.numWorkItemsStarted                      0                       # number of work items this cpu started
system.cpu.num_busy_cycles               198951629.998000                       # Number of busy cycles
system.cpu.num_cc_register_reads            261834000                       # number of times the CC registers were read
system.cpu.num_cc_register_writes             7036365                       # number of times the CC registers were written
system.cpu.num_conditional_control_insts      2104314                       # number of instructions that are conditional controls
system.cpu.num_fp_alu_accesses                      0                       # Number of float alu accesses
system.cpu.num_fp_insts                             0                       # number of float instructions
system.cpu.num_fp_register_reads                    0                       # number of times the floating registers were read
system.cpu.num_fp_register_writes                   0                       # number of times the floating registers were written
system.cpu.num_func_calls                      112570                       # number of times a function call or return occured
system.cpu.num_idle_cycles                   0.002000                       # Number of idle cycles
system.cpu.num_int_alu_accesses              59512698                       # Number of integer alu accesses
system.cpu.num_int_insts                     59512698                       # number of integer instructions
system.cpu.num_int_register_reads           119729109                       # number of times the integer registers were read
system.cpu.num_int_register_writes           45311196                       # number of times the integer registers were written
system.cpu.num_load_insts                    25597352                       # Number of load instructions
system.cpu.num_mem_refs                      37503510                       # number of memory refs
system.cpu.num_store_insts                   11906158                       # Number of store instructions
system.cpu.num_vec_alu_accesses                     0                       # Number of vector alu accesses
system.cpu.num_vec_insts                            0                       # number of vector instructions
system.cpu.num_vec_register_reads                  16                       # number of times the vector registers were read
system.cpu.num_vec_register_writes                  0                       # number of times the vector registers were written
system.cpu.op_class::No_OpClass                     0      0.00%      0.00% # Class of executed instruction
system.cpu.op_class::IntAlu                  20886613     33.85%     33.85% # Class of executed instruction
system.cpu.op_class::IntMult                  3313521      5.37%     39.22% # Class of executed instruction
system.cpu.op_class::IntDiv                         0      0.00%     39.22% # Class of executed instruction
system.cpu.op_class::FloatAdd                       0      0.00%     39.22% # Class of executed instruction
system.cpu.op_class::FloatCmp                       0      0.00%     39.22% # Class of executed instruction
system.cpu.op_class::FloatCvt                       0      0.00%     39.22% # Class of executed instruction
system.cpu.op_class::FloatMult                      0      0.00%     39.22% # Class of executed instruction
system.cpu.op_class::FloatMultAcc                   0      0.00%     39.22% # Class of executed instruction
system.cpu.op_class::FloatDiv                       0      0.00%     39.22% # Class of executed instruction
system.cpu.op_class::FloatMisc                      0      0.00%     39.22% # Class of executed instruction
system.cpu.op_class::FloatSqrt                      0      0.00%     39.22% # Class of executed instruction
system.cpu.op_class::SimdAdd                        0      0.00%     39.22% # Class of executed instruction
system.cpu.op_class::SimdAddAcc                     0      0.00%     39.22% # Class of executed instruction
system.cpu.op_class::SimdAlu                        0      0.00%     39.22% # Class of executed instruction
system.cpu.op_class::SimdCmp                        0      0.00%     39.22% # Class of executed instruction
system.cpu.op_class::SimdCvt                        0      0.00%     39.22% # Class of executed instruction
system.cpu.op_class::SimdMisc                       0      0.00%     39.22% # Class of executed instruction
system.cpu.op_class::SimdMult                       0      0.00%     39.22% # Class of executed instruction
system.cpu.op_class::SimdMultAcc                    0      0.00%     39.22% # Class of executed instruction
system.cpu.op_class::SimdShift                      0      0.00%     39.22% # Class of executed instruction
system.cpu.op_class::SimdShiftAcc                   0      0.00%     39.22% # Class of executed instruction
system.cpu.op_class::SimdDiv                        0      0.00%     39.22% # Class of executed instruction
system.cpu.op_class::SimdSqrt                       0      0.00%     39.22% # Class of executed instruction
system.cpu.op_class::SimdFloatAdd                   0      0.00%     39.22% # Class of executed instruction
system.cpu.op_class::SimdFloatAlu                   0      0.00%     39.22% # Class of executed instruction
system.cpu.op_class::SimdFloatCmp                   0      0.00%     39.22% # Class of executed instruction
system.cpu.op_class::SimdFloatCvt                   0      0.00%     39.22% # Class of executed instruction
system.cpu.op_class::SimdFloatDiv                   0      0.00%     39.22% # Class of executed instruction
system.cpu.op_class::SimdFloatMisc                738      0.00%     39.22% # Class of executed instruction
system.cpu.op_class::SimdFloatMult                  0      0.00%     39.22% # Class of executed instruction
system.cpu.op_class::SimdFloatMultAcc               0      0.00%     39.22% # Class of executed instruction
system.cpu.op_class::SimdFloatSqrt                  0      0.00%     39.22% # Class of executed instruction
system.cpu.op_class::SimdReduceAdd                  0      0.00%     39.22% # Class of executed instruction
system.cpu.op_class::SimdReduceAlu                  0      0.00%     39.22% # Class of executed instruction
system.cpu.op_class::SimdReduceCmp                  0      0.00%     39.22% # Class of executed instruction
system.cpu.op_class::SimdFloatReduceAdd             0      0.00%     39.22% # Class of executed instruction
system.cpu.op_class::SimdFloatReduceCmp             0      0.00%     39.22% # Class of executed instruction
system.cpu.op_class::SimdAes                        0      0.00%     39.22% # Class of executed instruction
system.cpu.op_class::SimdAesMix                     0      0.00%     39.22% # Class of executed instruction
system.cpu.op_class::SimdSha1Hash                   0      0.00%     39.22% # Class of executed instruction
system.cpu.op_class::SimdSha1Hash2                  0      0.00%     39.22% # Class of executed instruction
system.cpu.op_class::SimdSha256Hash                 0      0.00%     39.22% # Class of executed instruction
system.cpu.op_class::SimdSha256Hash2                0      0.00%     39.22% # Class of executed instruction
system.cpu.op_class::SimdShaSigma2                  0      0.00%     39.22% # Class of executed instruction
system.cpu.op_class::SimdShaSigma3                  0      0.00%     39.22% # Class of executed instruction
system.cpu.op_class::SimdPredAlu                    0      0.00%     39.22% # Class of executed instruction
system.cpu.op_class::MemRead                 25597352     41.48%     80.70% # Class of executed instruction
system.cpu.op_class::MemWrite                11906158     19.30%    100.00% # Class of executed instruction
system.cpu.op_class::FloatMemRead                   0      0.00%    100.00% # Class of executed instruction
system.cpu.op_class::FloatMemWrite                  0      0.00%    100.00% # Class of executed instruction
system.cpu.op_class::IprAccess                      0      0.00%    100.00% # Class of executed instruction
system.cpu.op_class::InstPrefetch                   0      0.00%    100.00% # Class of executed instruction
system.cpu.op_class::total                   61704382                       # Class of executed instruction
system.cpu.workload.numSyscalls                    17                       # Number of system calls
system.membus.snoop_filter.hit_multi_requests          556                       # Number of requests hitting in the snoop filter with multiple (>1) holders of the requested data.
system.membus.snoop_filter.hit_multi_snoops            0                       # Number of snoops hitting in the snoop filter with multiple (>1) holders of the requested data.
system.membus.snoop_filter.hit_single_requests        13105                       # Number of requests hitting in the snoop filter with a single holder of the requested data.
system.membus.snoop_filter.hit_single_snoops            0                       # Number of snoops hitting in the snoop filter with a single holder of the requested data.
system.membus.snoop_filter.tot_requests         26452                       # Total number of requests made to the snoop filter.
system.membus.snoop_filter.tot_snoops               0                       # Total number of snoops made to the snoop filter.
system.membus.pwrStateResidencyTicks::UNDEFINED  99475815000                       # Cumulative time (in ticks) in various power states
system.membus.trans_dist::ReadResp              11720                       # Transaction distribution
system.membus.trans_dist::WritebackDirty         2074                       # Transaction distribution
system.membus.trans_dist::WritebackClean         7993                       # Transaction distribution
system.membus.trans_dist::CleanEvict             3031                       # Transaction distribution
system.membus.trans_dist::ReadExReq              1634                       # Transaction distribution
system.membus.trans_dist::ReadExResp             1634                       # Transaction distribution
system.membus.trans_dist::ReadCleanReq           8121                       # Transaction distribution
system.membus.trans_dist::ReadSharedReq          3599                       # Transaction distribution
system.membus.pkt_count_system.cpu.icache.mem_side::system.mem_ctrls.port        24235                       # Packet count per connected master and slave (bytes)
system.membus.pkt_count_system.cpu.dcache.mem_side::system.mem_ctrls.port        15571                       # Packet count per connected master and slave (bytes)
system.membus.pkt_count::total                  39806                       # Packet count per connected master and slave (bytes)
system.membus.pkt_size_system.cpu.icache.mem_side::system.mem_ctrls.port      1031296                       # Cumulative packet size per connected master and slave (bytes)
system.membus.pkt_size_system.cpu.dcache.mem_side::system.mem_ctrls.port       467648                       # Cumulative packet size per connected master and slave (bytes)
system.membus.pkt_size::total                 1498944                       # Cumulative packet size per connected master and slave (bytes)
system.membus.snoops                                0                       # Total snoops (count)
system.membus.snoopTraffic                          0                       # Total snoop traffic (bytes)
system.membus.snoop_fanout::samples             13354                       # Request fanout histogram
system.membus.snoop_fanout::mean             0.042160                       # Request fanout histogram
system.membus.snoop_fanout::stdev            0.200961                       # Request fanout histogram
system.membus.snoop_fanout::underflows              0      0.00%      0.00% # Request fanout histogram
system.membus.snoop_fanout::0                   12791     95.78%     95.78% # Request fanout histogram
system.membus.snoop_fanout::1                     563      4.22%    100.00% # Request fanout histogram
system.membus.snoop_fanout::2                       0      0.00%    100.00% # Request fanout histogram
system.membus.snoop_fanout::overflows               0      0.00%    100.00% # Request fanout histogram
system.membus.snoop_fanout::min_value               0                       # Request fanout histogram
system.membus.snoop_fanout::max_value               1                       # Request fanout histogram
system.membus.snoop_fanout::total               13354                       # Request fanout histogram
system.membus.reqLayer0.occupancy            67011500                       # Layer occupancy (ticks)
system.membus.reqLayer0.utilization               0.1                       # Layer utilization (%)
system.membus.respLayer1.occupancy           41087500                       # Layer occupancy (ticks)
system.membus.respLayer1.utilization              0.0                       # Layer utilization (%)
system.membus.respLayer2.occupancy           27677000                       # Layer occupancy (ticks)
system.membus.respLayer2.utilization              0.0                       # Layer utilization (%)
system.voltage_domain.voltage                       1                       # Voltage in Volts
system.clk_domain.clock                          1000                       # Clock period in ticks
system.cpu_voltage_domain.voltage                   1                       # Voltage in Volts
system.mem_ctrls.pwrStateResidencyTicks::UNDEFINED  99475815000                       # Cumulative time (in ticks) in various power states
system.mem_ctrls.bytes_read::.cpu.inst         519744                       # Number of bytes read from this memory
system.mem_ctrls.bytes_read::.cpu.data         334912                       # Number of bytes read from this memory
system.mem_ctrls.bytes_read::total             854656                       # Number of bytes read from this memory
system.mem_ctrls.bytes_inst_read::.cpu.inst       519744                       # Number of instructions bytes read from this memory
system.mem_ctrls.bytes_inst_read::total        519744                       # Number of instructions bytes read from this memory
system.mem_ctrls.bytes_written::.writebacks       132736                       # Number of bytes written to this memory
system.mem_ctrls.bytes_written::total          132736                       # Number of bytes written to this memory
system.mem_ctrls.num_reads::.cpu.inst            8121                       # Number of read requests responded to by this memory
system.mem_ctrls.num_reads::.cpu.data            5233                       # Number of read requests responded to by this memory
system.mem_ctrls.num_reads::total               13354                       # Number of read requests responded to by this memory
system.mem_ctrls.num_writes::.writebacks         2074                       # Number of write requests responded to by this memory
system.mem_ctrls.num_writes::total               2074                       # Number of write requests responded to by this memory
system.mem_ctrls.bw_read::.cpu.inst           5224828                       # Total read bandwidth from this memory (bytes/s)
system.mem_ctrls.bw_read::.cpu.data           3366768                       # Total read bandwidth from this memory (bytes/s)
system.mem_ctrls.bw_read::total               8591596                       # Total read bandwidth from this memory (bytes/s)
system.mem_ctrls.bw_inst_read::.cpu.inst      5224828                       # Instruction read bandwidth from this memory (bytes/s)
system.mem_ctrls.bw_inst_read::total          5224828                       # Instruction read bandwidth from this memory (bytes/s)
system.mem_ctrls.bw_write::.writebacks        1334354                       # Write bandwidth from this memory (bytes/s)
system.mem_ctrls.bw_write::total              1334354                       # Write bandwidth from this memory (bytes/s)
system.mem_ctrls.bw_total::.writebacks        1334354                       # Total bandwidth to/from this memory (bytes/s)
system.mem_ctrls.bw_total::.cpu.inst          5224828                       # Total bandwidth to/from this memory (bytes/s)
system.mem_ctrls.bw_total::.cpu.data          3366768                       # Total bandwidth to/from this memory (bytes/s)
system.mem_ctrls.bw_total::total              9925950                       # Total bandwidth to/from this memory (bytes/s)
system.mem_ctrls.avgPriority_.writebacks::samples      1983.00                       # Average QoS priority value for accepted requests
system.mem_ctrls.avgPriority_.cpu.inst::samples      1462.00                       # Average QoS priority value for accepted requests
system.mem_ctrls.avgPriority_.cpu.data::samples      3768.00                       # Average QoS priority value for accepted requests
system.mem_ctrls.priorityMinLatency      0.000000018750                       # per QoS priority minimum request to response latency (s)
system.mem_ctrls.priorityMaxLatency      0.097100192500                       # per QoS priority maximum request to response latency (s)
system.mem_ctrls.numReadWriteTurnArounds          116                       # Number of turnarounds from READ to WRITE
system.mem_ctrls.numWriteReadTurnArounds          116                       # Number of turnarounds from WRITE to READ
system.mem_ctrls.numStayReadState               45448                       # Number of times bus staying in READ state
system.mem_ctrls.numStayWriteState               1838                       # Number of times bus staying in WRITE state
system.mem_ctrls.readReqs                       13354                       # Number of read requests accepted
system.mem_ctrls.writeReqs                       9532                       # Number of write requests accepted
system.mem_ctrls.readBursts                     13354                       # Number of DRAM read bursts, including those serviced by the write queue
system.mem_ctrls.writeBursts                     9532                       # Number of DRAM write bursts, including those merged in the write queue
system.mem_ctrls.servicedByWrQ                   8124                       # Number of DRAM read bursts serviced by the write queue
system.mem_ctrls.mergedWrBursts                  7549                       # Number of DRAM write bursts merged with an existing one
system.mem_ctrls.neitherReadNorWriteReqs            0                       # Number of requests that are neither read nor write
system.mem_ctrls.perBankRdBursts::0               792                       # Per bank write bursts
system.mem_ctrls.perBankRdBursts::1               336                       # Per bank write bursts
system.mem_ctrls.perBankRdBursts::2                55                       # Per bank write bursts
system.mem_ctrls.perBankRdBursts::3               716                       # Per bank write bursts
system.mem_ctrls.perBankRdBursts::4               750                       # Per bank write bursts
system.mem_ctrls.perBankRdBursts::5              1119                       # Per bank write bursts
system.mem_ctrls.perBankRdBursts::6               980                       # Per bank write bursts
system.mem_ctrls.perBankRdBursts::7               101                       # Per bank write bursts
system.mem_ctrls.perBankRdBursts::8               130                       # Per bank write bursts
system.mem_ctrls.perBankRdBursts::9                43                       # Per bank write bursts
system.mem_ctrls.perBankRdBursts::10                9                       # Per bank write bursts
system.mem_ctrls.perBankRdBursts::11               37                       # Per bank write bursts
system.mem_ctrls.perBankRdBursts::12               28                       # Per bank write bursts
system.mem_ctrls.perBankRdBursts::13               10                       # Per bank write bursts
system.mem_ctrls.perBankRdBursts::14               76                       # Per bank write bursts
system.mem_ctrls.perBankRdBursts::15               48                       # Per bank write bursts
system.mem_ctrls.perBankWrBursts::0               192                       # Per bank write bursts
system.mem_ctrls.perBankWrBursts::1               133                       # Per bank write bursts
system.mem_ctrls.perBankWrBursts::2                20                       # Per bank write bursts
system.mem_ctrls.perBankWrBursts::3                55                       # Per bank write bursts
system.mem_ctrls.perBankWrBursts::4               234                       # Per bank write bursts
system.mem_ctrls.perBankWrBursts::5               445                       # Per bank write bursts
system.mem_ctrls.perBankWrBursts::6               526                       # Per bank write bursts
system.mem_ctrls.perBankWrBursts::7                53                       # Per bank write bursts
system.mem_ctrls.perBankWrBursts::8               118                       # Per bank write bursts
system.mem_ctrls.perBankWrBursts::9                27                       # Per bank write bursts
system.mem_ctrls.perBankWrBursts::10                8                       # Per bank write bursts
system.mem_ctrls.perBankWrBursts::11               20                       # Per bank write bursts
system.mem_ctrls.perBankWrBursts::12               27                       # Per bank write bursts
system.mem_ctrls.perBankWrBursts::13                4                       # Per bank write bursts
system.mem_ctrls.perBankWrBursts::14               55                       # Per bank write bursts
system.mem_ctrls.perBankWrBursts::15               34                       # Per bank write bursts
system.mem_ctrls.avgRdQLen                       1.00                       # Average read queue length when enqueuing
system.mem_ctrls.avgWrQLen                      25.21                       # Average write queue length when enqueuing
system.mem_ctrls.totQLat                     75164000                       # Total ticks spent queuing
system.mem_ctrls.totBusLat                   26150000                       # Total ticks spent in databus transfers
system.mem_ctrls.totMemAccLat               173226500                       # Total ticks spent from burst creation until serviced by the DRAM
system.mem_ctrls.avgQLat                     14371.70                       # Average queueing delay per DRAM burst
system.mem_ctrls.avgBusLat                    5000.00                       # Average bus latency per DRAM burst
system.mem_ctrls.avgMemAccLat                33121.70                       # Average memory access latency per DRAM burst
system.mem_ctrls.numRdRetry                         0                       # Number of times read queue was full causing retry
system.mem_ctrls.numWrRetry                         0                       # Number of times write queue was full causing retry
system.mem_ctrls.readRowHits                     2535                       # Number of row buffer hits during reads
system.mem_ctrls.writeRowHits                    1676                       # Number of row buffer hits during writes
system.mem_ctrls.readRowHitRate                 48.47                       # Row buffer hit rate for reads
system.mem_ctrls.writeRowHitRate                84.52                       # Row buffer hit rate for writes
system.mem_ctrls.readPktSize::0                     0                       # Read request sizes (log2)
system.mem_ctrls.readPktSize::1                     0                       # Read request sizes (log2)
system.mem_ctrls.readPktSize::2                     0                       # Read request sizes (log2)
system.mem_ctrls.readPktSize::3                     0                       # Read request sizes (log2)
system.mem_ctrls.readPktSize::4                     0                       # Read request sizes (log2)
system.mem_ctrls.readPktSize::5                     0                       # Read request sizes (log2)
system.mem_ctrls.readPktSize::6                 13354                       # Read request sizes (log2)
system.mem_ctrls.writePktSize::0                    0                       # Write request sizes (log2)
system.mem_ctrls.writePktSize::1                    0                       # Write request sizes (log2)
system.mem_ctrls.writePktSize::2                    0                       # Write request sizes (log2)
system.mem_ctrls.writePktSize::3                    0                       # Write request sizes (log2)
system.mem_ctrls.writePktSize::4                    0                       # Write request sizes (log2)
system.mem_ctrls.writePktSize::5                    0                       # Write request sizes (log2)
system.mem_ctrls.writePktSize::6                 9532                       # Write request sizes (log2)
system.mem_ctrls.rdQLenPdf::0                    5230                       # What read queue length does an incoming req see
system.mem_ctrls.rdQLenPdf::1                       0                       # What read queue length does an incoming req see
system.mem_ctrls.rdQLenPdf::2                       0                       # What read queue length does an incoming req see
system.mem_ctrls.rdQLenPdf::3                       0                       # What read queue length does an incoming req see
system.mem_ctrls.rdQLenPdf::4                       0                       # What read queue length does an incoming req see
system.mem_ctrls.rdQLenPdf::5                       0                       # What read queue length does an incoming req see
system.mem_ctrls.rdQLenPdf::6                       0                       # What read queue length does an incoming req see
system.mem_ctrls.rdQLenPdf::7                       0                       # What read queue length does an incoming req see
system.mem_ctrls.rdQLenPdf::8                       0                       # What read queue length does an incoming req see
system.mem_ctrls.rdQLenPdf::9                       0                       # What read queue length does an incoming req see
system.mem_ctrls.rdQLenPdf::10                      0                       # What read queue length does an incoming req see
system.mem_ctrls.rdQLenPdf::11                      0                       # What read queue length does an incoming req see
system.mem_ctrls.rdQLenPdf::12                      0                       # What read queue length does an incoming req see
system.mem_ctrls.rdQLenPdf::13                      0                       # What read queue length does an incoming req see
system.mem_ctrls.rdQLenPdf::14                      0                       # What read queue length does an incoming req see
system.mem_ctrls.rdQLenPdf::15                      0                       # What read queue length does an incoming req see
system.mem_ctrls.rdQLenPdf::16                      0                       # What read queue length does an incoming req see
system.mem_ctrls.rdQLenPdf::17                      0                       # What read queue length does an incoming req see
system.mem_ctrls.rdQLenPdf::18                      0                       # What read queue length does an incoming req see
system.mem_ctrls.rdQLenPdf::19                      0                       # What read queue length does an incoming req see
system.mem_ctrls.rdQLenPdf::20                      0                       # What read queue length does an incoming req see
system.mem_ctrls.rdQLenPdf::21                      0                       # What read queue length does an incoming req see
system.mem_ctrls.rdQLenPdf::22                      0                       # What read queue length does an incoming req see
system.mem_ctrls.rdQLenPdf::23                      0                       # What read queue length does an incoming req see
system.mem_ctrls.rdQLenPdf::24                      0                       # What read queue length does an incoming req see
system.mem_ctrls.rdQLenPdf::25                      0                       # What read queue length does an incoming req see
system.mem_ctrls.rdQLenPdf::26                      0                       # What read queue length does an incoming req see
system.mem_ctrls.rdQLenPdf::27                      0                       # What read queue length does an incoming req see
system.mem_ctrls.rdQLenPdf::28                      0                       # What read queue length does an incoming req see
system.mem_ctrls.rdQLenPdf::29                      0                       # What read queue length does an incoming req see
system.mem_ctrls.rdQLenPdf::30                      0                       # What read queue length does an incoming req see
system.mem_ctrls.rdQLenPdf::31                      0                       # What read queue length does an incoming req see
system.mem_ctrls.wrQLenPdf::0                       1                       # What write queue length does an incoming req see
system.mem_ctrls.wrQLenPdf::1                       1                       # What write queue length does an incoming req see
system.mem_ctrls.wrQLenPdf::2                       1                       # What write queue length does an incoming req see
system.mem_ctrls.wrQLenPdf::3                       1                       # What write queue length does an incoming req see
system.mem_ctrls.wrQLenPdf::4                       1                       # What write queue length does an incoming req see
system.mem_ctrls.wrQLenPdf::5                       1                       # What write queue length does an incoming req see
system.mem_ctrls.wrQLenPdf::6                       1                       # What write queue length does an incoming req see
system.mem_ctrls.wrQLenPdf::7                       1                       # What write queue length does an incoming req see
system.mem_ctrls.wrQLenPdf::8                       1                       # What write queue length does an incoming req see
system.mem_ctrls.wrQLenPdf::9                       1                       # What write queue length does an incoming req see
system.mem_ctrls.wrQLenPdf::10                      1                       # What write queue length does an incoming req see
system.mem_ctrls.wrQLenPdf::11                      1                       # What write queue length does an incoming req see
system.mem_ctrls.wrQLenPdf::12                      1                       # What write queue length does an incoming req see
system.mem_ctrls.wrQLenPdf::13                      1                       # What write queue length does an incoming req see
system.mem_ctrls.wrQLenPdf::14                      1                       # What write queue length does an incoming req see
system.mem_ctrls.wrQLenPdf::15                     43                       # What write queue length does an incoming req see
system.mem_ctrls.wrQLenPdf::16                     46                       # What write queue length does an incoming req see
system.mem_ctrls.wrQLenPdf::17                    117                       # What write queue length does an incoming req see
system.mem_ctrls.wrQLenPdf::18                    118                       # What write queue length does an incoming req see
system.mem_ctrls.wrQLenPdf::19                    118                       # What write queue length does an incoming req see
system.mem_ctrls.wrQLenPdf::20                    119                       # What write queue length does an incoming req see
system.mem_ctrls.wrQLenPdf::21                    119                       # What write queue length does an incoming req see
system.mem_ctrls.wrQLenPdf::22                    118                       # What write queue length does an incoming req see
system.mem_ctrls.wrQLenPdf::23                    117                       # What write queue length does an incoming req see
system.mem_ctrls.wrQLenPdf::24                    117                       # What write queue length does an incoming req see
system.mem_ctrls.wrQLenPdf::25                    117                       # What write queue length does an incoming req see
system.mem_ctrls.wrQLenPdf::26                    117                       # What write queue length does an incoming req see
system.mem_ctrls.wrQLenPdf::27                    117                       # What write queue length does an incoming req see
system.mem_ctrls.wrQLenPdf::28                    117                       # What write queue length does an incoming req see
system.mem_ctrls.wrQLenPdf::29                    117                       # What write queue length does an incoming req see
system.mem_ctrls.wrQLenPdf::30                    118                       # What write queue length does an incoming req see
system.mem_ctrls.wrQLenPdf::31                    117                       # What write queue length does an incoming req see
system.mem_ctrls.wrQLenPdf::32                    116                       # What write queue length does an incoming req see
system.mem_ctrls.wrQLenPdf::33                      0                       # What write queue length does an incoming req see
system.mem_ctrls.wrQLenPdf::34                      0                       # What write queue length does an incoming req see
system.mem_ctrls.wrQLenPdf::35                      0                       # What write queue length does an incoming req see
system.mem_ctrls.wrQLenPdf::36                      0                       # What write queue length does an incoming req see
system.mem_ctrls.wrQLenPdf::37                      0                       # What write queue length does an incoming req see
system.mem_ctrls.wrQLenPdf::38                      0                       # What write queue length does an incoming req see
system.mem_ctrls.wrQLenPdf::39                      0                       # What write queue length does an incoming req see
system.mem_ctrls.wrQLenPdf::40                      0                       # What write queue length does an incoming req see
system.mem_ctrls.wrQLenPdf::41                      0                       # What write queue length does an incoming req see
system.mem_ctrls.wrQLenPdf::42                      0                       # What write queue length does an incoming req see
system.mem_ctrls.wrQLenPdf::43                      0                       # What write queue length does an incoming req see
system.mem_ctrls.wrQLenPdf::44                      0                       # What write queue length does an incoming req see
system.mem_ctrls.wrQLenPdf::45                      0                       # What write queue length does an incoming req see
system.mem_ctrls.wrQLenPdf::46                      0                       # What write queue length does an incoming req see
system.mem_ctrls.wrQLenPdf::47                      0                       # What write queue length does an incoming req see
system.mem_ctrls.wrQLenPdf::48                      0                       # What write queue length does an incoming req see
system.mem_ctrls.wrQLenPdf::49                      0                       # What write queue length does an incoming req see
system.mem_ctrls.wrQLenPdf::50                      0                       # What write queue length does an incoming req see
system.mem_ctrls.wrQLenPdf::51                      0                       # What write queue length does an incoming req see
system.mem_ctrls.wrQLenPdf::52                      0                       # What write queue length does an incoming req see
system.mem_ctrls.wrQLenPdf::53                      0                       # What write queue length does an incoming req see
system.mem_ctrls.wrQLenPdf::54                      0                       # What write queue length does an incoming req see
system.mem_ctrls.wrQLenPdf::55                      0                       # What write queue length does an incoming req see
system.mem_ctrls.wrQLenPdf::56                      0                       # What write queue length does an incoming req see
system.mem_ctrls.wrQLenPdf::57                      0                       # What write queue length does an incoming req see
system.mem_ctrls.wrQLenPdf::58                      0                       # What write queue length does an incoming req see
system.mem_ctrls.wrQLenPdf::59                      0                       # What write queue length does an incoming req see
system.mem_ctrls.wrQLenPdf::60                      0                       # What write queue length does an incoming req see
system.mem_ctrls.wrQLenPdf::61                      0                       # What write queue length does an incoming req see
system.mem_ctrls.wrQLenPdf::62                      0                       # What write queue length does an incoming req see
system.mem_ctrls.wrQLenPdf::63                      0                       # What write queue length does an incoming req see
system.mem_ctrls.bytesPerActivate::samples         2959                       # Bytes accessed per row activation
system.mem_ctrls.bytesPerActivate::mean    154.171004                       # Bytes accessed per row activation
system.mem_ctrls.bytesPerActivate::gmean    99.858406                       # Bytes accessed per row activation
system.mem_ctrls.bytesPerActivate::stdev   213.594554                       # Bytes accessed per row activation
system.mem_ctrls.bytesPerActivate::0-127         2018     68.20%     68.20% # Bytes accessed per row activation
system.mem_ctrls.bytesPerActivate::128-255          542     18.32%     86.52% # Bytes accessed per row activation
system.mem_ctrls.bytesPerActivate::256-383          111      3.75%     90.27% # Bytes accessed per row activation
system.mem_ctrls.bytesPerActivate::384-511           68      2.30%     92.57% # Bytes accessed per row activation
system.mem_ctrls.bytesPerActivate::512-639           54      1.82%     94.39% # Bytes accessed per row activation
system.mem_ctrls.bytesPerActivate::640-767           30      1.01%     95.40% # Bytes accessed per row activation
system.mem_ctrls.bytesPerActivate::768-895           18      0.61%     96.01% # Bytes accessed per row activation
system.mem_ctrls.bytesPerActivate::896-1023           11      0.37%     96.38% # Bytes accessed per row activation
system.mem_ctrls.bytesPerActivate::1024-1151          107      3.62%    100.00% # Bytes accessed per row activation
system.mem_ctrls.bytesPerActivate::total         2959                       # Bytes accessed per row activation
system.mem_ctrls.rdPerTurnAround::samples          116                       # Reads before turning the bus around for writes
system.mem_ctrls.rdPerTurnAround::mean      44.887931                       # Reads before turning the bus around for writes
system.mem_ctrls.rdPerTurnAround::gmean     25.065677                       # Reads before turning the bus around for writes
system.mem_ctrls.rdPerTurnAround::stdev     86.165238                       # Reads before turning the bus around for writes
system.mem_ctrls.rdPerTurnAround::0-31             80     68.97%     68.97% # Reads before turning the bus around for writes
system.mem_ctrls.rdPerTurnAround::32-63            26     22.41%     91.38% # Reads before turning the bus around for writes
system.mem_ctrls.rdPerTurnAround::64-95             1      0.86%     92.24% # Reads before turning the bus around for writes
system.mem_ctrls.rdPerTurnAround::96-127            1      0.86%     93.10% # Reads before turning the bus around for writes
system.mem_ctrls.rdPerTurnAround::128-159            1      0.86%     93.97% # Reads before turning the bus around for writes
system.mem_ctrls.rdPerTurnAround::224-255            3      2.59%     96.55% # Reads before turning the bus around for writes
system.mem_ctrls.rdPerTurnAround::288-319            1      0.86%     97.41% # Reads before turning the bus around for writes
system.mem_ctrls.rdPerTurnAround::384-415            1      0.86%     98.28% # Reads before turning the bus around for writes
system.mem_ctrls.rdPerTurnAround::448-479            1      0.86%     99.14% # Reads before turning the bus around for writes
system.mem_ctrls.rdPerTurnAround::576-607            1      0.86%    100.00% # Reads before turning the bus around for writes
system.mem_ctrls.rdPerTurnAround::total           116                       # Reads before turning the bus around for writes
system.mem_ctrls.wrPerTurnAround::samples          116                       # Writes before turning the bus around for reads
system.mem_ctrls.wrPerTurnAround::mean      16.818966                       # Writes before turning the bus around for reads
system.mem_ctrls.wrPerTurnAround::gmean     16.785761                       # Writes before turning the bus around for reads
system.mem_ctrls.wrPerTurnAround::stdev      1.076218                       # Writes before turning the bus around for reads
system.mem_ctrls.wrPerTurnAround::16               71     61.21%     61.21% # Writes before turning the bus around for reads
system.mem_ctrls.wrPerTurnAround::17                3      2.59%     63.79% # Writes before turning the bus around for reads
system.mem_ctrls.wrPerTurnAround::18               34     29.31%     93.10% # Writes before turning the bus around for reads
system.mem_ctrls.wrPerTurnAround::19                8      6.90%    100.00% # Writes before turning the bus around for reads
system.mem_ctrls.wrPerTurnAround::total           116                       # Writes before turning the bus around for reads
system.mem_ctrls.bytesReadDRAM                 334720                       # Total number of bytes read from DRAM
system.mem_ctrls.bytesReadWrQ                  519936                       # Total number of bytes read from write queue
system.mem_ctrls.bytesWritten                  124864                       # Total number of bytes written to DRAM
system.mem_ctrls.bytesReadSys                  854656                       # Total read bytes from the system interface side
system.mem_ctrls.bytesWrittenSys               610048                       # Total written bytes from the system interface side
system.mem_ctrls.avgRdBW                         3.36                       # Average DRAM read bandwidth in MiByte/s
system.mem_ctrls.avgWrBW                         1.26                       # Average achieved write bandwidth in MiByte/s
system.mem_ctrls.avgRdBWSys                      8.59                       # Average system read bandwidth in MiByte/s
system.mem_ctrls.avgWrBWSys                      6.13                       # Average system write bandwidth in MiByte/s
system.mem_ctrls.peakBW                      12800.00                       # Theoretical peak bandwidth in MiByte/s
system.mem_ctrls.busUtil                         0.04                       # Data bus utilization in percentage
system.mem_ctrls.busUtilRead                     0.03                       # Data bus utilization in percentage for reads
system.mem_ctrls.busUtilWrite                    0.01                       # Data bus utilization in percentage for writes
system.mem_ctrls.totGap                   99475807000                       # Total gap between requests
system.mem_ctrls.avgGap                    4346579.00                       # Average gap between requests
system.mem_ctrls.masterReadBytes::.cpu.inst        93568                       # Per-master bytes read from memory
system.mem_ctrls.masterReadBytes::.cpu.data       241152                       # Per-master bytes read from memory
system.mem_ctrls.masterWriteBytes::.writebacks       124864                       # Per-master bytes write to memory
system.mem_ctrls.masterReadRate::.cpu.inst 940610.539355721790                       # Per-master bytes read from memory rate (Bytes/sec)
system.mem_ctrls.masterReadRate::.cpu.data 2424227.436588481534                       # Per-master bytes read from memory rate (Bytes/sec)
system.mem_ctrls.masterWriteRate::.writebacks 1255219.673244195059                       # Per-master bytes write to memory rate (Bytes/sec)
system.mem_ctrls.masterReadAccesses::.cpu.inst         8121                       # Per-master read serviced memory accesses
system.mem_ctrls.masterReadAccesses::.cpu.data         5233                       # Per-master read serviced memory accesses
system.mem_ctrls.masterWriteAccesses::.writebacks         9532                       # Per-master write serviced memory accesses
system.mem_ctrls.masterReadTotalLat::.cpu.inst     43395500                       # Per-master read total memory access latency
system.mem_ctrls.masterReadTotalLat::.cpu.data    129831000                       # Per-master read total memory access latency
system.mem_ctrls.masterWriteTotalLat::.writebacks 2370591101500                       # Per-master write total memory access latency
system.mem_ctrls.masterReadAvgLat::.cpu.inst      5343.62                       # Per-master read average memory access latency
system.mem_ctrls.masterReadAvgLat::.cpu.data     24810.05                       # Per-master read average memory access latency
system.mem_ctrls.masterWriteAvgLat::.writebacks 248698185.22                       # Per-master write average memory access latency
system.mem_ctrls.pageHitRate                    58.38                       # Row buffer hit rate, read and write combined
system.mem_ctrls.rank1.actEnergy              1128120                       # Energy for activate commands per rank (pJ)
system.mem_ctrls.rank1.preEnergy               580635                       # Energy for precharge commands per rank (pJ)
system.mem_ctrls.rank1.readEnergy             2720340                       # Energy for read commands per rank (pJ)
system.mem_ctrls.rank1.writeEnergy            1529460                       # Energy for write commands per rank (pJ)
system.mem_ctrls.rank1.refreshEnergy     7852026000.000001                       # Energy for refresh commands per rank (pJ)
system.mem_ctrls.rank1.actBackEnergy       1526070120                       # Energy for active background per rank (pJ)
system.mem_ctrls.rank1.preBackEnergy      36913601280                       # Energy for precharge background per rank (pJ)
system.mem_ctrls.rank1.actPowerDownEnergy            0                       # Energy for active power-down per rank (pJ)
system.mem_ctrls.rank1.prePowerDownEnergy            0                       # Energy for precharge power-down per rank (pJ)
system.mem_ctrls.rank1.selfRefreshEnergy            0                       # Energy for self refresh per rank (pJ)
system.mem_ctrls.rank1.totalEnergy        46297655955                       # Total energy per rank (pJ)
system.mem_ctrls.rank1.averagePower        465.416201                       # Core power per rank (mW)
system.mem_ctrls.rank1.totalIdleTime                0                       # Total Idle time Per DRAM Rank
system.mem_ctrls.rank1.memoryStateTime::IDLE  95952971750                       # Time in different power states
system.mem_ctrls.rank1.memoryStateTime::REF   3321500000                       # Time in different power states
system.mem_ctrls.rank1.memoryStateTime::SREF            0                       # Time in different power states
system.mem_ctrls.rank1.memoryStateTime::PRE_PDN            0                       # Time in different power states
system.mem_ctrls.rank1.memoryStateTime::ACT    201343250                       # Time in different power states
system.mem_ctrls.rank1.memoryStateTime::ACT_PDN            0                       # Time in different power states
system.mem_ctrls.rank0.actEnergy             20077680                       # Energy for activate commands per rank (pJ)
system.mem_ctrls.rank0.preEnergy             10648770                       # Energy for precharge commands per rank (pJ)
system.mem_ctrls.rank0.readEnergy            34621860                       # Energy for read commands per rank (pJ)
system.mem_ctrls.rank0.writeEnergy            8654760                       # Energy for write commands per rank (pJ)
system.mem_ctrls.rank0.refreshEnergy     7852026000.000001                       # Energy for refresh commands per rank (pJ)
system.mem_ctrls.rank0.actBackEnergy       4954806510                       # Energy for active background per rank (pJ)
system.mem_ctrls.rank0.preBackEnergy      34026244320                       # Energy for precharge background per rank (pJ)
system.mem_ctrls.rank0.actPowerDownEnergy            0                       # Energy for active power-down per rank (pJ)
system.mem_ctrls.rank0.prePowerDownEnergy            0                       # Energy for precharge power-down per rank (pJ)
system.mem_ctrls.rank0.selfRefreshEnergy            0                       # Energy for self refresh per rank (pJ)
system.mem_ctrls.rank0.totalEnergy        46907079900                       # Total energy per rank (pJ)
system.mem_ctrls.rank0.averagePower        471.542554                       # Core power per rank (mW)
system.mem_ctrls.rank0.totalIdleTime                0                       # Total Idle time Per DRAM Rank
system.mem_ctrls.rank0.memoryStateTime::IDLE  88410167750                       # Time in different power states
system.mem_ctrls.rank0.memoryStateTime::REF   3321500000                       # Time in different power states
system.mem_ctrls.rank0.memoryStateTime::SREF            0                       # Time in different power states
system.mem_ctrls.rank0.memoryStateTime::PRE_PDN            0                       # Time in different power states
system.mem_ctrls.rank0.memoryStateTime::ACT   7744147250                       # Time in different power states
system.mem_ctrls.rank0.memoryStateTime::ACT_PDN            0                       # Time in different power states
system.cpu_clk_domain.clock                       500                       # Clock period in ticks
system.cpu.numPwrStateTransitions                   1                       # Number of power state transitions
system.cpu.pwrStateResidencyTicks::ON     99475815000                       # Cumulative time (in ticks) in various power states
system.cpu.icache.pwrStateResidencyTicks::UNDEFINED  99475815000                       # Cumulative time (in ticks) in various power states
system.cpu.icache.demand_hits::.cpu.inst     61448131                       # number of demand (read+write) hits
system.cpu.icache.demand_hits::total         61448131                       # number of demand (read+write) hits
system.cpu.icache.overall_hits::.cpu.inst     61448131                       # number of overall hits
system.cpu.icache.overall_hits::total        61448131                       # number of overall hits
system.cpu.icache.demand_misses::.cpu.inst         8121                       # number of demand (read+write) misses
system.cpu.icache.demand_misses::total           8121                       # number of demand (read+write) misses
system.cpu.icache.overall_misses::.cpu.inst         8121                       # number of overall misses
system.cpu.icache.overall_misses::total          8121                       # number of overall misses
system.cpu.icache.demand_miss_latency::.cpu.inst    238143500                       # number of demand (read+write) miss cycles
system.cpu.icache.demand_miss_latency::total    238143500                       # number of demand (read+write) miss cycles
system.cpu.icache.overall_miss_latency::.cpu.inst    238143500                       # number of overall miss cycles
system.cpu.icache.overall_miss_latency::total    238143500                       # number of overall miss cycles
system.cpu.icache.demand_accesses::.cpu.inst     61456252                       # number of demand (read+write) accesses
system.cpu.icache.demand_accesses::total     61456252                       # number of demand (read+write) accesses
system.cpu.icache.overall_accesses::.cpu.inst     61456252                       # number of overall (read+write) accesses
system.cpu.icache.overall_accesses::total     61456252                       # number of overall (read+write) accesses
system.cpu.icache.demand_miss_rate::.cpu.inst     0.000132                       # miss rate for demand accesses
system.cpu.icache.demand_miss_rate::total     0.000132                       # miss rate for demand accesses
system.cpu.icache.overall_miss_rate::.cpu.inst     0.000132                       # miss rate for overall accesses
system.cpu.icache.overall_miss_rate::total     0.000132                       # miss rate for overall accesses
system.cpu.icache.demand_avg_miss_latency::.cpu.inst 29324.405861                       # average overall miss latency
system.cpu.icache.demand_avg_miss_latency::total 29324.405861                       # average overall miss latency
system.cpu.icache.overall_avg_miss_latency::.cpu.inst 29324.405861                       # average overall miss latency
system.cpu.icache.overall_avg_miss_latency::total 29324.405861                       # average overall miss latency
system.cpu.icache.blocked_cycles::no_mshrs            0                       # number of cycles access was blocked
system.cpu.icache.blocked_cycles::no_targets            0                       # number of cycles access was blocked
system.cpu.icache.blocked::no_mshrs                 0                       # number of cycles access was blocked
system.cpu.icache.blocked::no_targets               0                       # number of cycles access was blocked
system.cpu.icache.avg_blocked_cycles::no_mshrs          nan                       # average number of cycles each access was blocked
system.cpu.icache.avg_blocked_cycles::no_targets          nan                       # average number of cycles each access was blocked
system.cpu.icache.writebacks::.writebacks         7993                       # number of writebacks
system.cpu.icache.writebacks::total              7993                       # number of writebacks
system.cpu.icache.demand_mshr_misses::.cpu.inst         8121                       # number of demand (read+write) MSHR misses
system.cpu.icache.demand_mshr_misses::total         8121                       # number of demand (read+write) MSHR misses
system.cpu.icache.overall_mshr_misses::.cpu.inst         8121                       # number of overall MSHR misses
system.cpu.icache.overall_mshr_misses::total         8121                       # number of overall MSHR misses
system.cpu.icache.demand_mshr_miss_latency::.cpu.inst    230022500                       # number of demand (read+write) MSHR miss cycles
system.cpu.icache.demand_mshr_miss_latency::total    230022500                       # number of demand (read+write) MSHR miss cycles
system.cpu.icache.overall_mshr_miss_latency::.cpu.inst    230022500                       # number of overall MSHR miss cycles
system.cpu.icache.overall_mshr_miss_latency::total    230022500                       # number of overall MSHR miss cycles
system.cpu.icache.demand_mshr_miss_rate::.cpu.inst     0.000132                       # mshr miss rate for demand accesses
system.cpu.icache.demand_mshr_miss_rate::total     0.000132                       # mshr miss rate for demand accesses
system.cpu.icache.overall_mshr_miss_rate::.cpu.inst     0.000132                       # mshr miss rate for overall accesses
system.cpu.icache.overall_mshr_miss_rate::total     0.000132                       # mshr miss rate for overall accesses
system.cpu.icache.demand_avg_mshr_miss_latency::.cpu.inst 28324.405861                       # average overall mshr miss latency
system.cpu.icache.demand_avg_mshr_miss_latency::total 28324.405861                       # average overall mshr miss latency
system.cpu.icache.overall_avg_mshr_miss_latency::.cpu.inst 28324.405861                       # average overall mshr miss latency
system.cpu.icache.overall_avg_mshr_miss_latency::total 28324.405861                       # average overall mshr miss latency
system.cpu.icache.replacements                   7993                       # number of replacements
system.cpu.icache.ReadReq_hits::.cpu.inst     61448131                       # number of ReadReq hits
system.cpu.icache.ReadReq_hits::total        61448131                       # number of ReadReq hits
system.cpu.icache.ReadReq_misses::.cpu.inst         8121                       # number of ReadReq misses
system.cpu.icache.ReadReq_misses::total          8121                       # number of ReadReq misses
system.cpu.icache.ReadReq_miss_latency::.cpu.inst    238143500                       # number of ReadReq miss cycles
system.cpu.icache.ReadReq_miss_latency::total    238143500                       # number of ReadReq miss cycles
system.cpu.icache.ReadReq_accesses::.cpu.inst     61456252                       # number of ReadReq accesses(hits+misses)
system.cpu.icache.ReadReq_accesses::total     61456252                       # number of ReadReq accesses(hits+misses)
system.cpu.icache.ReadReq_miss_rate::.cpu.inst     0.000132                       # miss rate for ReadReq accesses
system.cpu.icache.ReadReq_miss_rate::total     0.000132                       # miss rate for ReadReq accesses
system.cpu.icache.ReadReq_avg_miss_latency::.cpu.inst 29324.405861                       # average ReadReq miss latency
system.cpu.icache.ReadReq_avg_miss_latency::total 29324.405861                       # average ReadReq miss latency
system.cpu.icache.ReadReq_mshr_misses::.cpu.inst         8121                       # number of ReadReq MSHR misses
system.cpu.icache.ReadReq_mshr_misses::total         8121                       # number of ReadReq MSHR misses
system.cpu.icache.ReadReq_mshr_miss_latency::.cpu.inst    230022500                       # number of ReadReq MSHR miss cycles
system.cpu.icache.ReadReq_mshr_miss_latency::total    230022500                       # number of ReadReq MSHR miss cycles
system.cpu.icache.ReadReq_mshr_miss_rate::.cpu.inst     0.000132                       # mshr miss rate for ReadReq accesses
system.cpu.icache.ReadReq_mshr_miss_rate::total     0.000132                       # mshr miss rate for ReadReq accesses
system.cpu.icache.ReadReq_avg_mshr_miss_latency::.cpu.inst 28324.405861                       # average ReadReq mshr miss latency
system.cpu.icache.ReadReq_avg_mshr_miss_latency::total 28324.405861                       # average ReadReq mshr miss latency
system.cpu.icache.tags.pwrStateResidencyTicks::UNDEFINED  99475815000                       # Cumulative time (in ticks) in various power states
system.cpu.icache.tags.tagsinuse           127.984610                       # Cycle average of tags in use
system.cpu.icache.tags.total_refs            61456252                       # Total number of references to valid blocks.
system.cpu.icache.tags.sampled_refs              8121                       # Sample count of references to valid blocks.
system.cpu.icache.tags.avg_refs           7567.571974                       # Average number of references to valid blocks.
system.cpu.icache.tags.warmup_cycle             77000                       # Cycle when the warmup percentage was hit.
system.cpu.icache.tags.occ_blocks::.cpu.inst   127.984610                       # Average occupied blocks per requestor
system.cpu.icache.tags.occ_percent::.cpu.inst     0.999880                       # Average percentage of cache occupancy
system.cpu.icache.tags.occ_percent::total     0.999880                       # Average percentage of cache occupancy
system.cpu.icache.tags.occ_task_id_blocks::1024          128                       # Occupied blocks per task id
system.cpu.icache.tags.age_task_id_blocks_1024::0           76                       # Occupied blocks per task id
system.cpu.icache.tags.age_task_id_blocks_1024::1           51                       # Occupied blocks per task id
system.cpu.icache.tags.age_task_id_blocks_1024::4            1                       # Occupied blocks per task id
system.cpu.icache.tags.occ_task_id_percent::1024            1                       # Percentage of cache occupancy per task id
system.cpu.icache.tags.tag_accesses         122920625                       # Number of tag accesses
system.cpu.icache.tags.data_accesses        122920625                       # Number of data accesses
system.cpu.dtb.walker.pwrStateResidencyTicks::UNDEFINED  99475815000                       # Cumulative time (in ticks) in various power states
system.cpu.dtb.stage2_mmu.stage2_tlb.walker.pwrStateResidencyTicks::UNDEFINED  99475815000                       # Cumulative time (in ticks) in various power states
system.cpu.itb.walker.pwrStateResidencyTicks::UNDEFINED  99475815000                       # Cumulative time (in ticks) in various power states
system.cpu.itb.stage2_mmu.stage2_tlb.walker.pwrStateResidencyTicks::UNDEFINED  99475815000                       # Cumulative time (in ticks) in various power states
system.cpu.dcache.pwrStateResidencyTicks::UNDEFINED  99475815000                       # Cumulative time (in ticks) in various power states
system.cpu.dcache.demand_hits::.cpu.data     37474797                       # number of demand (read+write) hits
system.cpu.dcache.demand_hits::total         37474797                       # number of demand (read+write) hits
system.cpu.dcache.overall_hits::.cpu.data     37474797                       # number of overall hits
system.cpu.dcache.overall_hits::total        37474797                       # number of overall hits
system.cpu.dcache.demand_misses::.cpu.data         5233                       # number of demand (read+write) misses
system.cpu.dcache.demand_misses::total           5233                       # number of demand (read+write) misses
system.cpu.dcache.overall_misses::.cpu.data         5233                       # number of overall misses
system.cpu.dcache.overall_misses::total          5233                       # number of overall misses
system.cpu.dcache.demand_miss_latency::.cpu.data    284528000                       # number of demand (read+write) miss cycles
system.cpu.dcache.demand_miss_latency::total    284528000                       # number of demand (read+write) miss cycles
system.cpu.dcache.overall_miss_latency::.cpu.data    284528000                       # number of overall miss cycles
system.cpu.dcache.overall_miss_latency::total    284528000                       # number of overall miss cycles
system.cpu.dcache.demand_accesses::.cpu.data     37480030                       # number of demand (read+write) accesses
system.cpu.dcache.demand_accesses::total     37480030                       # number of demand (read+write) accesses
system.cpu.dcache.overall_accesses::.cpu.data     37480030                       # number of overall (read+write) accesses
system.cpu.dcache.overall_accesses::total     37480030                       # number of overall (read+write) accesses
system.cpu.dcache.demand_miss_rate::.cpu.data     0.000140                       # miss rate for demand accesses
system.cpu.dcache.demand_miss_rate::total     0.000140                       # miss rate for demand accesses
system.cpu.dcache.overall_miss_rate::.cpu.data     0.000140                       # miss rate for overall accesses
system.cpu.dcache.overall_miss_rate::total     0.000140                       # miss rate for overall accesses
system.cpu.dcache.demand_avg_miss_latency::.cpu.data 54371.870820                       # average overall miss latency
system.cpu.dcache.demand_avg_miss_latency::total 54371.870820                       # average overall miss latency
system.cpu.dcache.overall_avg_miss_latency::.cpu.data 54371.870820                       # average overall miss latency
system.cpu.dcache.overall_avg_miss_latency::total 54371.870820                       # average overall miss latency
system.cpu.dcache.blocked_cycles::no_mshrs            0                       # number of cycles access was blocked
system.cpu.dcache.blocked_cycles::no_targets            0                       # number of cycles access was blocked
system.cpu.dcache.blocked::no_mshrs                 0                       # number of cycles access was blocked
system.cpu.dcache.blocked::no_targets               0                       # number of cycles access was blocked
system.cpu.dcache.avg_blocked_cycles::no_mshrs          nan                       # average number of cycles each access was blocked
system.cpu.dcache.avg_blocked_cycles::no_targets          nan                       # average number of cycles each access was blocked
system.cpu.dcache.writebacks::.writebacks         2074                       # number of writebacks
system.cpu.dcache.writebacks::total              2074                       # number of writebacks
system.cpu.dcache.demand_mshr_misses::.cpu.data         5233                       # number of demand (read+write) MSHR misses
system.cpu.dcache.demand_mshr_misses::total         5233                       # number of demand (read+write) MSHR misses
system.cpu.dcache.overall_mshr_misses::.cpu.data         5233                       # number of overall MSHR misses
system.cpu.dcache.overall_mshr_misses::total         5233                       # number of overall MSHR misses
system.cpu.dcache.demand_mshr_miss_latency::.cpu.data    279295000                       # number of demand (read+write) MSHR miss cycles
system.cpu.dcache.demand_mshr_miss_latency::total    279295000                       # number of demand (read+write) MSHR miss cycles
system.cpu.dcache.overall_mshr_miss_latency::.cpu.data    279295000                       # number of overall MSHR miss cycles
system.cpu.dcache.overall_mshr_miss_latency::total    279295000                       # number of overall MSHR miss cycles
system.cpu.dcache.demand_mshr_miss_rate::.cpu.data     0.000140                       # mshr miss rate for demand accesses
system.cpu.dcache.demand_mshr_miss_rate::total     0.000140                       # mshr miss rate for demand accesses
system.cpu.dcache.overall_mshr_miss_rate::.cpu.data     0.000140                       # mshr miss rate for overall accesses
system.cpu.dcache.overall_mshr_miss_rate::total     0.000140                       # mshr miss rate for overall accesses
system.cpu.dcache.demand_avg_mshr_miss_latency::.cpu.data 53371.870820                       # average overall mshr miss latency
system.cpu.dcache.demand_avg_mshr_miss_latency::total 53371.870820                       # average overall mshr miss latency
system.cpu.dcache.overall_avg_mshr_miss_latency::.cpu.data 53371.870820                       # average overall mshr miss latency
system.cpu.dcache.overall_avg_mshr_miss_latency::total 53371.870820                       # average overall mshr miss latency
system.cpu.dcache.replacements                   5105                       # number of replacements
system.cpu.dcache.ReadReq_hits::.cpu.data     25570619                       # number of ReadReq hits
system.cpu.dcache.ReadReq_hits::total        25570619                       # number of ReadReq hits
system.cpu.dcache.ReadReq_misses::.cpu.data         3599                       # number of ReadReq misses
system.cpu.dcache.ReadReq_misses::total          3599                       # number of ReadReq misses
system.cpu.dcache.ReadReq_miss_latency::.cpu.data    224243000                       # number of ReadReq miss cycles
system.cpu.dcache.ReadReq_miss_latency::total    224243000                       # number of ReadReq miss cycles
system.cpu.dcache.ReadReq_accesses::.cpu.data     25574218                       # number of ReadReq accesses(hits+misses)
system.cpu.dcache.ReadReq_accesses::total     25574218                       # number of ReadReq accesses(hits+misses)
system.cpu.dcache.ReadReq_miss_rate::.cpu.data     0.000141                       # miss rate for ReadReq accesses
system.cpu.dcache.ReadReq_miss_rate::total     0.000141                       # miss rate for ReadReq accesses
system.cpu.dcache.ReadReq_avg_miss_latency::.cpu.data 62307.029730                       # average ReadReq miss latency
system.cpu.dcache.ReadReq_avg_miss_latency::total 62307.029730                       # average ReadReq miss latency
system.cpu.dcache.ReadReq_mshr_misses::.cpu.data         3599                       # number of ReadReq MSHR misses
system.cpu.dcache.ReadReq_mshr_misses::total         3599                       # number of ReadReq MSHR misses
system.cpu.dcache.ReadReq_mshr_miss_latency::.cpu.data    220644000                       # number of ReadReq MSHR miss cycles
system.cpu.dcache.ReadReq_mshr_miss_latency::total    220644000                       # number of ReadReq MSHR miss cycles
system.cpu.dcache.ReadReq_mshr_miss_rate::.cpu.data     0.000141                       # mshr miss rate for ReadReq accesses
system.cpu.dcache.ReadReq_mshr_miss_rate::total     0.000141                       # mshr miss rate for ReadReq accesses
system.cpu.dcache.ReadReq_avg_mshr_miss_latency::.cpu.data 61307.029730                       # average ReadReq mshr miss latency
system.cpu.dcache.ReadReq_avg_mshr_miss_latency::total 61307.029730                       # average ReadReq mshr miss latency
system.cpu.dcache.WriteReq_hits::.cpu.data     11904178                       # number of WriteReq hits
system.cpu.dcache.WriteReq_hits::total       11904178                       # number of WriteReq hits
system.cpu.dcache.WriteReq_misses::.cpu.data         1634                       # number of WriteReq misses
system.cpu.dcache.WriteReq_misses::total         1634                       # number of WriteReq misses
system.cpu.dcache.WriteReq_miss_latency::.cpu.data     60285000                       # number of WriteReq miss cycles
system.cpu.dcache.WriteReq_miss_latency::total     60285000                       # number of WriteReq miss cycles
system.cpu.dcache.WriteReq_accesses::.cpu.data     11905812                       # number of WriteReq accesses(hits+misses)
system.cpu.dcache.WriteReq_accesses::total     11905812                       # number of WriteReq accesses(hits+misses)
system.cpu.dcache.WriteReq_miss_rate::.cpu.data     0.000137                       # miss rate for WriteReq accesses
system.cpu.dcache.WriteReq_miss_rate::total     0.000137                       # miss rate for WriteReq accesses
system.cpu.dcache.WriteReq_avg_miss_latency::.cpu.data 36894.124847                       # average WriteReq miss latency
system.cpu.dcache.WriteReq_avg_miss_latency::total 36894.124847                       # average WriteReq miss latency
system.cpu.dcache.WriteReq_mshr_misses::.cpu.data         1634                       # number of WriteReq MSHR misses
system.cpu.dcache.WriteReq_mshr_misses::total         1634                       # number of WriteReq MSHR misses
system.cpu.dcache.WriteReq_mshr_miss_latency::.cpu.data     58651000                       # number of WriteReq MSHR miss cycles
system.cpu.dcache.WriteReq_mshr_miss_latency::total     58651000                       # number of WriteReq MSHR miss cycles
system.cpu.dcache.WriteReq_mshr_miss_rate::.cpu.data     0.000137                       # mshr miss rate for WriteReq accesses
system.cpu.dcache.WriteReq_mshr_miss_rate::total     0.000137                       # mshr miss rate for WriteReq accesses
system.cpu.dcache.WriteReq_avg_mshr_miss_latency::.cpu.data 35894.124847                       # average WriteReq mshr miss latency
system.cpu.dcache.WriteReq_avg_mshr_miss_latency::total 35894.124847                       # average WriteReq mshr miss latency
system.cpu.dcache.LoadLockedReq_hits::.cpu.data           46                       # number of LoadLockedReq hits
system.cpu.dcache.LoadLockedReq_hits::total           46                       # number of LoadLockedReq hits
system.cpu.dcache.LoadLockedReq_accesses::.cpu.data           46                       # number of LoadLockedReq accesses(hits+misses)
system.cpu.dcache.LoadLockedReq_accesses::total           46                       # number of LoadLockedReq accesses(hits+misses)
system.cpu.dcache.StoreCondReq_hits::.cpu.data           46                       # number of StoreCondReq hits
system.cpu.dcache.StoreCondReq_hits::total           46                       # number of StoreCondReq hits
system.cpu.dcache.StoreCondReq_accesses::.cpu.data           46                       # number of StoreCondReq accesses(hits+misses)
system.cpu.dcache.StoreCondReq_accesses::total           46                       # number of StoreCondReq accesses(hits+misses)
system.cpu.dcache.tags.pwrStateResidencyTicks::UNDEFINED  99475815000                       # Cumulative time (in ticks) in various power states
system.cpu.dcache.tags.tagsinuse           127.978505                       # Cycle average of tags in use
system.cpu.dcache.tags.total_refs            37480122                       # Total number of references to valid blocks.
system.cpu.dcache.tags.sampled_refs              5233                       # Sample count of references to valid blocks.
system.cpu.dcache.tags.avg_refs           7162.262947                       # Average number of references to valid blocks.
system.cpu.dcache.tags.warmup_cycle            148000                       # Cycle when the warmup percentage was hit.
system.cpu.dcache.tags.occ_blocks::.cpu.data   127.978505                       # Average occupied blocks per requestor
system.cpu.dcache.tags.occ_percent::.cpu.data     0.999832                       # Average percentage of cache occupancy
system.cpu.dcache.tags.occ_percent::total     0.999832                       # Average percentage of cache occupancy
system.cpu.dcache.tags.occ_task_id_blocks::1024          128                       # Occupied blocks per task id
system.cpu.dcache.tags.age_task_id_blocks_1024::0           42                       # Occupied blocks per task id
system.cpu.dcache.tags.age_task_id_blocks_1024::1           86                       # Occupied blocks per task id
system.cpu.dcache.tags.occ_task_id_percent::1024            1                       # Percentage of cache occupancy per task id
system.cpu.dcache.tags.tag_accesses          74965477                       # Number of tag accesses
system.cpu.dcache.tags.data_accesses         74965477                       # Number of data accesses

---------- End Simulation Statistics   ----------
