
---------- Begin Simulation Statistics ----------
final_tick                               100397470000                       # Number of ticks from beginning of simulation (restored from checkpoints and never reset)
host_inst_rate                                 911385                       # Simulator instruction rate (inst/s)
host_mem_usage                                 698384                       # Number of bytes of host memory used
host_op_rate                                   914706                       # Simulator op (including micro ops) rate (op/s)
host_seconds                                    67.43                       # Real time elapsed on the host
host_tick_rate                             1488879696                       # Simulator tick rate (ticks/s)
sim_freq                                 1000000000000                       # Frequency of simulated ticks
sim_insts                                    61456032                       # Number of instructions simulated
sim_ops                                      61680039                       # Number of ops (including micro ops) simulated
sim_seconds                                  0.100397                       # Number of seconds simulated
sim_ticks                                100397470000                       # Number of ticks simulated
system.cpu.Branches                           2313777                       # Number of branches fetched
system.cpu.committedInsts                    61456032                       # Number of instructions committed
system.cpu.committedOps                      61680039                       # Number of ops (including micro ops) committed
system.cpu.dtb.accesses                             0                       # DTB accesses
system.cpu.dtb.align_faults                         0                       # Number of TLB faults due to alignment restrictions
system.cpu.dtb.domain_faults                        0                       # Number of TLB faults due to domain restrictions
system.cpu.dtb.flush_entries                        0                       # Number of entries that have been flushed from TLB
system.cpu.dtb.flush_tlb                            0                       # Number of times complete TLB was flushed
system.cpu.dtb.flush_tlb_asid                       0                       # Number of times TLB was flushed by ASID
system.cpu.dtb.flush_tlb_mva                        0                       # Number of times TLB was flushed by MVA
system.cpu.dtb.flush_tlb_mva_asid                   0                       # Number of times TLB was flushed by MVA & ASID
system.cpu.dtb.hits                                 0                       # DTB hits
system.cpu.dtb.inst_accesses                        0                       # ITB inst accesses
system.cpu.dtb.inst_hits                            0                       # ITB inst hits
system.cpu.dtb.inst_misses                          0                       # ITB inst misses
system.cpu.dtb.misses                               0                       # DTB misses
system.cpu.dtb.perms_faults                         0                       # Number of TLB faults due to permissions restrictions
system.cpu.dtb.prefetch_faults                      0                       # Number of TLB faults due to prefetch
system.cpu.dtb.read_accesses                        0                       # DTB read accesses
system.cpu.dtb.read_hits                            0                       # DTB read hits
system.cpu.dtb.read_misses                          0                       # DTB read misses
system.cpu.dtb.stage2_mmu.stage2_tlb.accesses            0                       # DTB accesses
system.cpu.dtb.stage2_mmu.stage2_tlb.align_faults            0                       # Number of TLB faults due to alignment restrictions
system.cpu.dtb.stage2_mmu.stage2_tlb.domain_faults            0                       # Number of TLB faults due to domain restrictions
system.cpu.dtb.stage2_mmu.stage2_tlb.flush_entries            0                       # Number of entries that have been flushed from TLB
system.cpu.dtb.stage2_mmu.stage2_tlb.flush_tlb            0                       # Number of times complete TLB was flushed
system.cpu.dtb.stage2_mmu.stage2_tlb.flush_tlb_asid            0                       # Number of times TLB was flushed by ASID
system.cpu.dtb.stage2_mmu.stage2_tlb.flush_tlb_mva            0                       # Number of times TLB was flushed by MVA
system.cpu.dtb.stage2_mmu.stage2_tlb.flush_tlb_mva_asid            0                       # Number of times TLB was flushed by MVA & ASID
system.cpu.dtb.stage2_mmu.stage2_tlb.hits            0                       # DTB hits
system.cpu.dtb.stage2_mmu.stage2_tlb.inst_accesses            0                       # ITB inst accesses
system.cpu.dtb.stage2_mmu.stage2_tlb.inst_hits            0                       # ITB inst hits
system.cpu.dtb.stage2_mmu.stage2_tlb.inst_misses            0                       # ITB inst misses
system.cpu.dtb.stage2_mmu.stage2_tlb.misses            0                       # DTB misses
system.cpu.dtb.stage2_mmu.stage2_tlb.perms_faults            0                       # Number of TLB faults due to permissions restrictions
system.cpu.dtb.stage2_mmu.stage2_tlb.prefetch_faults            0                       # Number of TLB faults due to prefetch
system.cpu.dtb.stage2_mmu.stage2_tlb.read_accesses            0                       # DTB read accesses
system.cpu.dtb.stage2_mmu.stage2_tlb.read_hits            0                       # DTB read hits
system.cpu.dtb.stage2_mmu.stage2_tlb.read_misses            0                       # DTB read misses
system.cpu.dtb.stage2_mmu.stage2_tlb.walker.walkRequestOrigin_Requested::Data            0                       # Table walker requests started/completed, data/inst
system.cpu.dtb.stage2_mmu.stage2_tlb.walker.walkRequestOrigin_Requested::Inst            0                       # Table walker requests started/completed, data/inst
system.cpu.dtb.stage2_mmu.stage2_tlb.walker.walkRequestOrigin_Requested::total            0                       # Table walker requests started/completed, data/inst
system.cpu.dtb.stage2_mmu.stage2_tlb.walker.walkRequestOrigin_Completed::Data            0                       # Table walker requests started/completed, data/inst
system.cpu.dtb.stage2_mmu.stage2_tlb.walker.walkRequestOrigin_Completed::Inst            0                       # Table walker requests started/completed, data/inst
system.cpu.dtb.stage2_mmu.stage2_tlb.walker.walkRequestOrigin_Completed::total            0                       # Table walker requests started/completed, data/inst
system.cpu.dtb.stage2_mmu.stage2_tlb.walker.walkRequestOrigin::total            0                       # Table walker requests started/completed, data/inst
system.cpu.dtb.stage2_mmu.stage2_tlb.walker.walks            0                       # Table walker walks requested
system.cpu.dtb.stage2_mmu.stage2_tlb.write_accesses            0                       # DTB write accesses
system.cpu.dtb.stage2_mmu.stage2_tlb.write_hits            0                       # DTB write hits
system.cpu.dtb.stage2_mmu.stage2_tlb.write_misses            0                       # DTB write misses
system.cpu.dtb.walker.walkRequestOrigin_Requested::Data            0                       # Table walker requests started/completed, data/inst
system.cpu.dtb.walker.walkRequestOrigin_Requested::Inst            0                       # Table walker requests started/completed, data/inst
system.cpu.dtb.walker.walkRequestOrigin_Requested::total            0                       # Table walker requests started/completed, data/inst
system.cpu.dtb.walker.walkRequestOrigin_Completed::Data            0                       # Table walker requests started/completed, data/inst
system.cpu.dtb.walker.walkRequestOrigin_Completed::Inst            0                       # Table walker requests started/completed, data/inst
system.cpu.dtb.walker.walkRequestOrigin_Completed::total            0                       # Table walker requests started/completed, data/inst
system.cpu.dtb.walker.walkRequestOrigin::total            0                       # Table walker requests started/completed, data/inst
system.cpu.dtb.walker.walks                         0                       # Table walker walks requested
system.cpu.dtb.write_accesses                       0                       # DTB write accesses
system.cpu.dtb.write_hits                           0                       # DTB write hits
system.cpu.dtb.write_misses                         0                       # DTB write misses
system.cpu.idle_fraction                     0.000000                       # Percentage of idle cycles
system.cpu.itb.accesses                             0                       # DTB accesses
system.cpu.itb.align_faults                         0                       # Number of TLB faults due to alignment restrictions
system.cpu.itb.domain_faults                        0                       # Number of TLB faults due to domain restrictions
system.cpu.itb.flush_entries                        0                       # Number of entries that have been flushed from TLB
system.cpu.itb.flush_tlb                            0                       # Number of times complete TLB was flushed
system.cpu.itb.flush_tlb_asid                       0                       # Number of times TLB was flushed by ASID
system.cpu.itb.flush_tlb_mva                        0                       # Number of times TLB was flushed by MVA
system.cpu.itb.flush_tlb_mva_asid                   0                       # Number of times TLB was flushed by MVA & ASID
system.cpu.itb.hits                                 0                       # DTB hits
system.cpu.itb.inst_accesses                        0                       # ITB inst accesses
system.cpu.itb.inst_hits                            0                       # ITB inst hits
system.cpu.itb.inst_misses                          0                       # ITB inst misses
system.cpu.itb.misses                               0                       # DTB misses
system.cpu.itb.perms_faults                         0                       # Number of TLB faults due to permissions restrictions
system.cpu.itb.prefetch_faults                      0                       # Number of TLB faults due to prefetch
system.cpu.itb.read_accesses                        0                       # DTB read accesses
system.cpu.itb.read_hits                            0                       # DTB read hits
system.cpu.itb.read_misses                          0                       # DTB read misses
system.cpu.itb.stage2_mmu.stage2_tlb.accesses            0                       # DTB accesses
system.cpu.itb.stage2_mmu.stage2_tlb.align_faults            0                       # Number of TLB faults due to alignment restrictions
system.cpu.itb.stage2_mmu.stage2_tlb.domain_faults            0                       # Number of TLB faults due to domain restrictions
system.cpu.itb.stage2_mmu.stage2_tlb.flush_entries            0                       # Number of entries that have been flushed from TLB
system.cpu.itb.stage2_mmu.stage2_tlb.flush_tlb            0                       # Number of times complete TLB was flushed
system.cpu.itb.stage2_mmu.stage2_tlb.flush_tlb_asid            0                       # Number of times TLB was flushed by ASID
system.cpu.itb.stage2_mmu.stage2_tlb.flush_tlb_mva            0                       # Number of times TLB was flushed by MVA
system.cpu.itb.stage2_mmu.stage2_tlb.flush_tlb_mva_asid            0                       # Number of times TLB was flushed by MVA & ASID
system.cpu.itb.stage2_mmu.stage2_tlb.hits            0                       # DTB hits
system.cpu.itb.stage2_mmu.stage2_tlb.inst_accesses            0                       # ITB inst accesses
system.cpu.itb.stage2_mmu.stage2_tlb.inst_hits            0                       # ITB inst hits
system.cpu.itb.stage2_mmu.stage2_tlb.inst_misses            0                       # ITB inst misses
system.cpu.itb.stage2_mmu.stage2_tlb.misses            0                       # DTB misses
system.cpu.itb.stage2_mmu.stage2_tlb.perms_faults            0                       # Number of TLB faults due to permissions restrictions
system.cpu.itb.stage2_mmu.stage2_tlb.prefetch_faults            0                       # Number of TLB faults due to prefetch
system.cpu.itb.stage2_mmu.stage2_tlb.read_accesses            0                       # DTB read accesses
system.cpu.itb.stage2_mmu.stage2_tlb.read_hits            0                       # DTB read hits
system.cpu.itb.stage2_mmu.stage2_tlb.read_misses            0                       # DTB read misses
system.cpu.itb.stage2_mmu.stage2_tlb.walker.walkRequestOrigin_Requested::Data            0                       # Table walker requests started/completed, data/inst
system.cpu.itb.stage2_mmu.stage2_tlb.walker.walkRequestOrigin_Requested::Inst            0                       # Table walker requests started/completed, data/inst
system.cpu.itb.stage2_mmu.stage2_tlb.walker.walkRequestOrigin_Requested::total            0                       # Table walker requests started/completed, data/inst
system.cpu.itb.stage2_mmu.stage2_tlb.walker.walkRequestOrigin_Completed::Data            0                       # Table walker requests started/completed, data/inst
system.cpu.itb.stage2_mmu.stage2_tlb.walker.walkRequestOrigin_Completed::Inst            0                       # Table walker requests started/completed, data/inst
system.cpu.itb.stage2_mmu.stage2_tlb.walker.walkRequestOrigin_Completed::total            0                       # Table walker requests started/completed, data/inst
system.cpu.itb.stage2_mmu.stage2_tlb.walker.walkRequestOrigin::total            0                       # Table walker requests started/completed, data/inst
system.cpu.itb.stage2_mmu.stage2_tlb.walker.walks            0                       # Table walker walks requested
system.cpu.itb.stage2_mmu.stage2_tlb.write_accesses            0                       # DTB write accesses
system.cpu.itb.stage2_mmu.stage2_tlb.write_hits            0                       # DTB write hits
system.cpu.itb.stage2_mmu.stage2_tlb.write_misses            0                       # DTB write misses
system.cpu.itb.walker.walkRequestOrigin_Requested::Data            0                       # Table walker requests started/completed, data/inst
system.cpu.itb.walker.walkRequestOrigin_Requested::Inst            0                       # Table walker requests started/completed, data/inst
system.cpu.itb.walker.walkRequestOrigin_Requested::total            0                       # Table walker requests started/completed, data/inst
system.cpu.itb.walker.walkRequestOrigin_Completed::Data            0                       # Table walker requests started/completed, data/inst
system.cpu.itb.walker.walkRequestOrigin_Completed::Inst            0                       # Table walker requests started/completed, data/inst
system.cpu.itb.walker.walkRequestOrigin_Completed::total            0                       # Table walker requests started/completed, data/inst
system.cpu.itb.walker.walkRequestOrigin::total            0                       # Table walker requests started/completed, data/inst
system.cpu.itb.walker.walks                         0                       # Table walker walks requested
system.cpu.itb.write_accesses                       0                       # DTB write accesses
system.cpu.itb.write_hits                           0                       # DTB write hits
system.cpu.itb.write_misses                         0                       # DTB write misses
system.cpu.not_idle_fraction                 1.000000                       # Percentage of non-idle cycles
system.cpu.numCycles                        200794940                       # number of cpu cycles simulated
system.cpu.numWorkItemsCompleted                    0                       # number of work items this cpu completed
system.cpu.numWorkItemsStarted                      0                       # number of work items this cpu started
system.cpu.num_busy_cycles               200794939.998000                       # Number of busy cycles
system.cpu.num_cc_register_reads            261834000                       # number of times the CC registers were read
system.cpu.num_cc_register_writes             7036365                       # number of times the CC registers were written
system.cpu.num_conditional_control_insts      2104314                       # number of instructions that are conditional controls
system.cpu.num_fp_alu_accesses                      0                       # Number of float alu accesses
system.cpu.num_fp_insts                             0                       # number of float instructions
system.cpu.num_fp_register_reads                    0                       # number of times the floating registers were read
system.cpu.num_fp_register_writes                   0                       # number of times the floating registers were written
system.cpu.num_func_calls                      112570                       # number of times a function call or return occured
system.cpu.num_idle_cycles                   0.002000                       # Number of idle cycles
system.cpu.num_int_alu_accesses              59512698                       # Number of integer alu accesses
system.cpu.num_int_insts                     59512698                       # number of integer instructions
system.cpu.num_int_register_reads           119729109                       # number of times the integer registers were read
system.cpu.num_int_register_writes           45311196                       # number of times the integer registers were written
system.cpu.num_load_insts                    25597352                       # Number of load instructions
system.cpu.num_mem_refs                      37503510                       # number of memory refs
system.cpu.num_store_insts                   11906158                       # Number of store instructions
system.cpu.num_vec_alu_accesses                     0                       # Number of vector alu accesses
system.cpu.num_vec_insts                            0                       # number of vector instructions
system.cpu.num_vec_register_reads                  16                       # number of times the vector registers were read
system.cpu.num_vec_register_writes                  0                       # number of times the vector registers were written
system.cpu.op_class::No_OpClass                     0      0.00%      0.00% # Class of executed instruction
system.cpu.op_class::IntAlu                  20886613     33.85%     33.85% # Class of executed instruction
system.cpu.op_class::IntMult                  3313521      5.37%     39.22% # Class of executed instruction
system.cpu.op_class::IntDiv                         0      0.00%     39.22% # Class of executed instruction
system.cpu.op_class::FloatAdd                       0      0.00%     39.22% # Class of executed instruction
system.cpu.op_class::FloatCmp                       0      0.00%     39.22% # Class of executed instruction
system.cpu.op_class::FloatCvt                       0      0.00%     39.22% # Class of executed instruction
system.cpu.op_class::FloatMult                      0      0.00%     39.22% # Class of executed instruction
system.cpu.op_class::FloatMultAcc                   0      0.00%     39.22% # Class of executed instruction
system.cpu.op_class::FloatDiv                       0      0.00%     39.22% # Class of executed instruction
system.cpu.op_class::FloatMisc                      0      0.00%     39.22% # Class of executed instruction
system.cpu.op_class::FloatSqrt                      0      0.00%     39.22% # Class of executed instruction
system.cpu.op_class::SimdAdd                        0      0.00%     39.22% # Class of executed instruction
system.cpu.op_class::SimdAddAcc                     0      0.00%     39.22% # Class of executed instruction
system.cpu.op_class::SimdAlu                        0      0.00%     39.22% # Class of executed instruction
system.cpu.op_class::SimdCmp                        0      0.00%     39.22% # Class of executed instruction
system.cpu.op_class::SimdCvt                        0      0.00%     39.22% # Class of executed instruction
system.cpu.op_class::SimdMisc                       0      0.00%     39.22% # Class of executed instruction
system.cpu.op_class::SimdMult                       0      0.00%     39.22% # Class of executed instruction
system.cpu.op_class::SimdMultAcc                    0      0.00%     39.22% # Class of executed instruction
system.cpu.op_class::SimdShift                      0      0.00%     39.22% # Class of executed instruction
system.cpu.op_class::SimdShiftAcc                   0      0.00%     39.22% # Class of executed instruction
system.cpu.op_class::SimdDiv                        0      0.00%     39.22% # Class of executed instruction
system.cpu.op_class::SimdSqrt                       0      0.00%     39.22% # Class of executed instruction
system.cpu.op_class::SimdFloatAdd                   0      0.00%     39.22% # Class of executed instruction
system.cpu.op_class::SimdFloatAlu                   0      0.00%     39.22% # Class of executed instruction
system.cpu.op_class::SimdFloatCmp                   0      0.00%     39.22% # Class of executed instruction
system.cpu.op_class::SimdFloatCvt                   0      0.00%     39.22% # Class of executed instruction
system.cpu.op_class::SimdFloatDiv                   0      0.00%     39.22% # Class of executed instruction
system.cpu.op_class::SimdFloatMisc                738      0.00%     39.22% # Class of executed instruction
system.cpu.op_class::SimdFloatMult                  0      0.00%     39.22% # Class of executed instruction
system.cpu.op_class::SimdFloatMultAcc               0      0.00%     39.22% # Class of executed instruction
system.cpu.op_class::SimdFloatSqrt                  0      0.00%     39.22% # Class of executed instruction
system.cpu.op_class::SimdReduceAdd                  0      0.00%     39.22% # Class of executed instruction
system.cpu.op_class::SimdReduceAlu                  0      0.00%     39.22% # Class of executed instruction
system.cpu.op_class::SimdReduceCmp                  0      0.00%     39.22% # Class of executed instruction
system.cpu.op_class::SimdFloatReduceAdd             0      0.00%     39.22% # Class of executed instruction
system.cpu.op_class::SimdFloatReduceCmp             0      0.00%     39.22% # Class of executed instruction
system.cpu.op_class::SimdAes                        0      0.00%     39.22% # Class of executed instruction
system.cpu.op_class::SimdAesMix                     0      0.00%     39.22% # Class of executed instruction
system.cpu.op_class::SimdSha1Hash                   0      0.00%     39.22% # Class of executed instruction
system.cpu.op_class::SimdSha1Hash2                  0      0.00%     39.22% # Class of executed instruction
system.cpu.op_class::SimdSha256Hash                 0      0.00%     39.22% # Class of executed instruction
system.cpu.op_class::SimdSha256Hash2                0      0.00%     39.22% # Class of executed instruction
system.cpu.op_class::SimdShaSigma2                  0      0.00%     39.22% # Class of executed instruction
system.cpu.op_class::SimdShaSigma3                  0      0.00%     39.22% # Class of executed instruction
system.cpu.op_class::SimdPredAlu                    0      0.00%     39.22% # Class of executed instruction
system.cpu.op_class::MemRead                 25597352     41.48%     80.70% # Class of executed instruction
system.cpu.op_class::MemWrite                11906158     19.30%    100.00% # Class of executed instruction
system.cpu.op_class::FloatMemRead                   0      0.00%    100.00% # Class of executed instruction
system.cpu.op_class::FloatMemWrite                  0      0.00%    100.00% # Class of executed instruction
system.cpu.op_class::IprAccess                      0      0.00%    100.00% # Class of executed instruction
system.cpu.op_class::InstPrefetch                   0      0.00%    100.00% # Class of executed instruction
system.cpu.op_class::total                   61704382                       # Class of executed instruction
system.cpu.workload.numSyscalls                    17                       # Number of system calls
system.membus.snoop_filter.hit_multi_requests          554                       # Number of requests hitting in the snoop filter with multiple (>1) holders of the requested data.
system.membus.snoop_filter.hit_multi_snoops            0                       # Number of snoops hitting in the snoop filter with multiple (>1) holders of the requested data.
system.membus.snoop_filter.hit_single_requests        32325                       # Number of requests hitting in the snoop filter with a single holder of the requested data.
system.membus.snoop_filter.hit_single_snoops            0                       # Number of snoops hitting in the snoop filter with a single holder of the requested data.
system.membus.snoop_filter.tot_requests         64768                       # Total number of requests made to the snoop filter.
system.membus.snoop_filter.tot_snoops               0                       # Total number of snoops made to the snoop filter.
system.membus.pwrStateResidencyTicks::UNDEFINED 100397470000                       # Cumulative time (in ticks) in various power states
system.membus.trans_dist::ReadResp              30042                       # Transaction distribution
system.membus.trans_dist::WritebackDirty         3228                       # Transaction distribution
system.membus.trans_dist::WritebackClean        16480                       # Transaction distribution
system.membus.trans_dist::CleanEvict            12612                       # Transaction distribution
system.membus.trans_dist::ReadExReq              2406                       # Transaction distribution
system.membus.trans_dist::ReadExResp             2406                       # Transaction distribution
system.membus.trans_dist::ReadCleanReq          16544                       # Transaction distribution
system.membus.trans_dist::ReadSharedReq         13498                       # Transaction distribution
system.membus.pkt_count_system.cpu.icache.mem_side::system.mem_ctrls.port        49568                       # Packet count per connected master and slave (bytes)
system.membus.pkt_count_system.cpu.dcache.mem_side::system.mem_ctrls.port        47648                       # Packet count per connected master and slave (bytes)
system.membus.pkt_count::total                  97216                       # Packet count per connected master and slave (bytes)
system.membus.pkt_size_system.cpu.icache.mem_side::system.mem_ctrls.port      2113536                       # Cumulative packet size per connected master and slave (bytes)
system.membus.pkt_size_system.cpu.dcache.mem_side::system.mem_ctrls.port      1224448                       # Cumulative packet size per connected master and slave (bytes)
system.membus.pkt_size::total                 3337984                       # Cumulative packet size per connected master and slave (bytes)
system.membus.snoops                                0                       # Total snoops (count)
system.membus.snoopTraffic                          0                       # Total snoop traffic (bytes)
system.membus.snoop_fanout::samples             32448                       # Request fanout histogram
system.membus.snoop_fanout::mean             0.017228                       # Request fanout histogram
system.membus.snoop_fanout::stdev            0.130120                       # Request fanout histogram
system.membus.snoop_fanout::underflows              0      0.00%      0.00% # Request fanout histogram
system.membus.snoop_fanout::0                   31889     98.28%     98.28% # Request fanout histogram
system.membus.snoop_fanout::1                     559      1.72%    100.00% # Request fanout histogram
system.membus.snoop_fanout::2                       0      0.00%    100.00% # Request fanout histogram
system.membus.snoop_fanout::overflows               0      0.00%    100.00% # Request fanout histogram
system.membus.snoop_fanout::min_value               0                       # Request fanout histogram
system.membus.snoop_fanout::max_value               1                       # Request fanout histogram
system.membus.snoop_fanout::total               32448                       # Request fanout histogram
system.membus.reqLayer0.occupancy           143982000                       # Layer occupancy (ticks)
system.membus.reqLayer0.utilization               0.1                       # Layer utilization (%)
system.membus.respLayer1.occupancy           83204000                       # Layer occupancy (ticks)
system.membus.respLayer1.utilization              0.1                       # Layer utilization (%)
system.membus.respLayer2.occupancy           85681250                       # Layer occupancy (ticks)
system.membus.respLayer2.utilization              0.1                       # Layer utilization (%)
system.voltage_domain.voltage                       1                       # Voltage in Volts
system.clk_domain.clock                          1000                       # Clock period in ticks
system.cpu_voltage_domain.voltage                   1                       # Voltage in Volts
system.mem_ctrls.pwrStateResidencyTicks::UNDEFINED 100397470000                       # Cumulative time (in ticks) in various power states
system.mem_ctrls.bytes_read::.cpu.inst        1058816                       # Number of bytes read from this memory
system.mem_ctrls.bytes_read::.cpu.data        1017856                       # Number of bytes read from this memory
system.mem_ctrls.bytes_read::total            2076672                       # Number of bytes read from this memory
system.mem_ctrls.bytes_inst_read::.cpu.inst      1058816                       # Number of instructions bytes read from this memory
system.mem_ctrls.bytes_inst_read::total       1058816                       # Number of instructions bytes read from this memory
system.mem_ctrls.bytes_written::.writebacks       206592                       # Number of bytes written to this memory
system.mem_ctrls.bytes_written::total          206592                       # Number of bytes written to this memory
system.mem_ctrls.num_reads::.cpu.inst           16544                       # Number of read requests responded to by this memory
system.mem_ctrls.num_reads::.cpu.data           15904                       # Number of read requests responded to by this memory
system.mem_ctrls.num_reads::total               32448                       # Number of read requests responded to by this memory
system.mem_ctrls.num_writes::.writebacks         3228                       # Number of write requests responded to by this memory
system.mem_ctrls.num_writes::total               3228                       # Number of write requests responded to by this memory
system.mem_ctrls.bw_read::.cpu.inst          10546242                       # Total read bandwidth from this memory (bytes/s)
system.mem_ctrls.bw_read::.cpu.data          10138263                       # Total read bandwidth from this memory (bytes/s)
system.mem_ctrls.bw_read::total              20684505                       # Total read bandwidth from this memory (bytes/s)
system.mem_ctrls.bw_inst_read::.cpu.inst     10546242                       # Instruction read bandwidth from this memory (bytes/s)
system.mem_ctrls.bw_inst_read::total         10546242                       # Instruction read bandwidth from this memory (bytes/s)
system.mem_ctrls.bw_write::.writebacks        2057741                       # Write bandwidth from this memory (bytes/s)
system.mem_ctrls.bw_write::total              2057741                       # Write bandwidth from this memory (bytes/s)
system.mem_ctrls.bw_total::.writebacks        2057741                       # Total bandwidth to/from this memory (bytes/s)
system.mem_ctrls.bw_total::.cpu.inst         10546242                       # Total bandwidth to/from this memory (bytes/s)
system.mem_ctrls.bw_total::.cpu.data         10138263                       # Total bandwidth to/from this memory (bytes/s)
system.mem_ctrls.bw_total::total             22742246                       # Total bandwidth to/from this memory (bytes/s)
system.mem_ctrls.avgPriority_.writebacks::samples      2674.00                       # Average QoS priority value for accepted requests
system.mem_ctrls.avgPriority_.cpu.inst::samples      1490.00                       # Average QoS priority value for accepted requests
system.mem_ctrls.avgPriority_.cpu.data::samples     13902.00                       # Average QoS priority value for accepted requests
system.mem_ctrls.priorityMinLatency      0.000000018750                       # per QoS priority minimum request to response latency (s)
system.mem_ctrls.priorityMaxLatency      0.076140100500                       # per QoS priority maximum request to response latency (s)
system.mem_ctrls.numReadWriteTurnArounds          158                       # Number of turnarounds from READ to WRITE
system.mem_ctrls.numWriteReadTurnArounds          158                       # Number of turnarounds from WRITE to READ
system.mem_ctrls.numStayReadState               75616                       # Number of times bus staying in READ state
system.mem_ctrls.numStayWriteState               2493                       # Number of times bus staying in WRITE state
system.mem_ctrls.readReqs                       32448                       # Number of read requests accepted
system.mem_ctrls.writeReqs                      19174                       # Number of write requests accepted
system.mem_ctrls.readBursts                     32448                       # Number of DRAM read bursts, including those serviced by the write queue
system.mem_ctrls.writeBursts                    19174                       # Number of DRAM write bursts, including those merged in the write queue
system.mem_ctrls.servicedByWrQ                  17056                       # Number of DRAM read bursts serviced by the write queue
system.mem_ctrls.mergedWrBursts                 16500                       # Number of DRAM write bursts merged with an existing one
system.mem_ctrls.neitherReadNorWriteReqs            0                       # Number of requests that are neither read nor write
system.mem_ctrls.perBankRdBursts::0               700                       # Per bank write bursts
system.mem_ctrls.perBankRdBursts::1              4350                       # Per bank write bursts
system.mem_ctrls.perBankRdBursts::2                65                       # Per bank write bursts
system.mem_ctrls.perBankRdBursts::3              1155                       # Per bank write bursts
system.mem_ctrls.perBankRdBursts::4              1021                       # Per bank write bursts
system.mem_ctrls.perBankRdBursts::5              3798                       # Per bank write bursts
system.mem_ctrls.perBankRdBursts::6              3461                       # Per bank write bursts
system.mem_ctrls.perBankRdBursts::7               104                       # Per bank write bursts
system.mem_ctrls.perBankRdBursts::8               165                       # Per bank write bursts
system.mem_ctrls.perBankRdBursts::9                48                       # Per bank write bursts
system.mem_ctrls.perBankRdBursts::10                9                       # Per bank write bursts
system.mem_ctrls.perBankRdBursts::11               38                       # Per bank write bursts
system.mem_ctrls.perBankRdBursts::12               28                       # Per bank write bursts
system.mem_ctrls.perBankRdBursts::13               10                       # Per bank write bursts
system.mem_ctrls.perBankRdBursts::14               82                       # Per bank write bursts
system.mem_ctrls.perBankRdBursts::15              358                       # Per bank write bursts
system.mem_ctrls.perBankWrBursts::0               216                       # Per bank write bursts
system.mem_ctrls.perBankWrBursts::1               184                       # Per bank write bursts
system.mem_ctrls.perBankWrBursts::2                28                       # Per bank write bursts
system.mem_ctrls.perBankWrBursts::3                68                       # Per bank write bursts
system.mem_ctrls.perBankWrBursts::4               285                       # Per bank write bursts
system.mem_ctrls.perBankWrBursts::5               642                       # Per bank write bursts
system.mem_ctrls.perBankWrBursts::6               762                       # Per bank write bursts
system.mem_ctrls.perBankWrBursts::7                84                       # Per bank write bursts
system.mem_ctrls.perBankWrBursts::8               186                       # Per bank write bursts
system.mem_ctrls.perBankWrBursts::9                30                       # Per bank write bursts
system.mem_ctrls.perBankWrBursts::10                8                       # Per bank write bursts
system.mem_ctrls.perBankWrBursts::11               20                       # Per bank write bursts
system.mem_ctrls.perBankWrBursts::12               27                       # Per bank write bursts
system.mem_ctrls.perBankWrBursts::13                4                       # Per bank write bursts
system.mem_ctrls.perBankWrBursts::14               65                       # Per bank write bursts
system.mem_ctrls.perBankWrBursts::15               42                       # Per bank write bursts
system.mem_ctrls.avgRdQLen                       1.00                       # Average read queue length when enqueuing
system.mem_ctrls.avgWrQLen                      25.93                       # Average write queue length when enqueuing
system.mem_ctrls.totQLat                    267792750                       # Total ticks spent queuing
system.mem_ctrls.totBusLat                   76960000                       # Total ticks spent in databus transfers
system.mem_ctrls.totMemAccLat               556392750                       # Total ticks spent from burst creation until serviced by the DRAM
system.mem_ctrls.avgQLat                     17398.18                       # Average queueing delay per DRAM burst
system.mem_ctrls.avgBusLat                    5000.00                       # Average bus latency per DRAM burst
system.mem_ctrls.avgMemAccLat                36148.18                       # Average memory access latency per DRAM burst
system.mem_ctrls.numRdRetry                         0                       # Number of times read queue was full causing retry
system.mem_ctrls.numWrRetry                         0                       # Number of times write queue was full causing retry
system.mem_ctrls.readRowHits                     4076                       # Number of row buffer hits during reads
system.mem_ctrls.writeRowHits                    2316                       # Number of row buffer hits during writes
system.mem_ctrls.readRowHitRate                 26.48                       # Row buffer hit rate for reads
system.mem_ctrls.writeRowHitRate                86.61                       # Row buffer hit rate for writes
system.mem_ctrls.readPktSize::0                     0                       # Read request sizes (log2)
system.mem_ctrls.readPktSize::1                     0                       # Read request sizes (log2)
system.mem_ctrls.readPktSize::2                     0                       # Read request sizes (log2)
system.mem_ctrls.readPktSize::3                     0                       # Read request sizes (log2)
system.mem_ctrls.readPktSize::4                     0                       # Read request sizes (log2)
system.mem_ctrls.readPktSize::5                     0                       # Read request sizes (log2)
system.mem_ctrls.readPktSize::6                 32448                       # Read request sizes (log2)
system.mem_ctrls.writePktSize::0                    0                       # Write request sizes (log2)
system.mem_ctrls.writePktSize::1                    0                       # Write request sizes (log2)
system.mem_ctrls.writePktSize::2                    0                       # Write request sizes (log2)
system.mem_ctrls.writePktSize::3                    0                       # Write request sizes (log2)
system.mem_ctrls.writePktSize::4                    0                       # Write request sizes (log2)
system.mem_ctrls.writePktSize::5                    0                       # Write request sizes (log2)
system.mem_ctrls.writePktSize::6                19174                       # Write request sizes (log2)
system.mem_ctrls.rdQLenPdf::0                   15392                       # What read queue length does an incoming req see
system.mem_ctrls.rdQLenPdf::1                       0                       # What read queue length does an incoming req see
system.mem_ctrls.rdQLenPdf::2                       0                       # What read queue length does an incoming req see
system.mem_ctrls.rdQLenPdf::3                       0                       # What read queue length does an incoming req see
system.mem_ctrls.rdQLenPdf::4                       0                       # What read queue length does an incoming req see
system.mem_ctrls.rdQLenPdf::5                       0                       # What read queue length does an incoming req see
system.mem_ctrls.rdQLenPdf::6                       0                       # What read queue length does an incoming req see
system.mem_ctrls.rdQLenPdf::7                       0                       # What read queue length does an incoming req see
system.mem_ctrls.rdQLenPdf::8                       0                       # What read queue length does an incoming req see
system.mem_ctrls.rdQLenPdf::9                       0                       # What read queue length does an incoming req see
system.mem_ctrls.rdQLenPdf::10                      0                       # What read queue length does an incoming req see
system.mem_ctrls.rdQLenPdf::11                      0                       # What read queue length does an incoming req see
system.mem_ctrls.rdQLenPdf::12                      0                       # What read queue length does an incoming req see
system.mem_ctrls.rdQLenPdf::13                      0                       # What read queue length does an incoming req see
system.mem_ctrls.rdQLenPdf::14                      0                       # What read queue length does an incoming req see
system.mem_ctrls.rdQLenPdf::15                      0                       # What read queue length does an incoming req see
system.mem_ctrls.rdQLenPdf::16                      0                       # What read queue length does an incoming req see
system.mem_ctrls.rdQLenPdf::17                      0                       # What read queue length does an incoming req see
system.mem_ctrls.rdQLenPdf::18                      0                       # What read queue length does an incoming req see
system.mem_ctrls.rdQLenPdf::19                      0                       # What read queue length does an incoming req see
system.mem_ctrls.rdQLenPdf::20                      0                       # What read queue length does an incoming req see
system.mem_ctrls.rdQLenPdf::21                      0                       # What read queue length does an incoming req see
system.mem_ctrls.rdQLenPdf::22                      0                       # What read queue length does an incoming req see
system.mem_ctrls.rdQLenPdf::23                      0                       # What read queue length does an incoming req see
system.mem_ctrls.rdQLenPdf::24                      0                       # What read queue length does an incoming req see
system.mem_ctrls.rdQLenPdf::25                      0                       # What read queue length does an incoming req see
system.mem_ctrls.rdQLenPdf::26                      0                       # What read queue length does an incoming req see
system.mem_ctrls.rdQLenPdf::27                      0                       # What read queue length does an incoming req see
system.mem_ctrls.rdQLenPdf::28                      0                       # What read queue length does an incoming req see
system.mem_ctrls.rdQLenPdf::29                      0                       # What read queue length does an incoming req see
system.mem_ctrls.rdQLenPdf::30                      0                       # What read queue length does an incoming req see
system.mem_ctrls.rdQLenPdf::31                      0                       # What read queue length does an incoming req see
system.mem_ctrls.wrQLenPdf::0                       1                       # What write queue length does an incoming req see
system.mem_ctrls.wrQLenPdf::1                       1                       # What write queue length does an incoming req see
system.mem_ctrls.wrQLenPdf::2                       1                       # What write queue length does an incoming req see
system.mem_ctrls.wrQLenPdf::3                       1                       # What write queue length does an incoming req see
system.mem_ctrls.wrQLenPdf::4                       1                       # What write queue length does an incoming req see
system.mem_ctrls.wrQLenPdf::5                       1                       # What write queue length does an incoming req see
system.mem_ctrls.wrQLenPdf::6                       1                       # What write queue length does an incoming req see
system.mem_ctrls.wrQLenPdf::7                       1                       # What write queue length does an incoming req see
system.mem_ctrls.wrQLenPdf::8                       1                       # What write queue length does an incoming req see
system.mem_ctrls.wrQLenPdf::9                       1                       # What write queue length does an incoming req see
system.mem_ctrls.wrQLenPdf::10                      1                       # What write queue length does an incoming req see
system.mem_ctrls.wrQLenPdf::11                      1                       # What write queue length does an incoming req see
system.mem_ctrls.wrQLenPdf::12                      1                       # What write queue length does an incoming req see
system.mem_ctrls.wrQLenPdf::13                      1                       # What write queue length does an incoming req see
system.mem_ctrls.wrQLenPdf::14                      1                       # What write queue length does an incoming req see
system.mem_ctrls.wrQLenPdf::15                     58                       # What write queue length does an incoming req see
system.mem_ctrls.wrQLenPdf::16                     61                       # What write queue length does an incoming req see
system.mem_ctrls.wrQLenPdf::17                    156                       # What write queue length does an incoming req see
system.mem_ctrls.wrQLenPdf::18                    161                       # What write queue length does an incoming req see
system.mem_ctrls.wrQLenPdf::19                    161                       # What write queue length does an incoming req see
system.mem_ctrls.wrQLenPdf::20                    159                       # What write queue length does an incoming req see
system.mem_ctrls.wrQLenPdf::21                    162                       # What write queue length does an incoming req see
system.mem_ctrls.wrQLenPdf::22                    159                       # What write queue length does an incoming req see
system.mem_ctrls.wrQLenPdf::23                    159                       # What write queue length does an incoming req see
system.mem_ctrls.wrQLenPdf::24                    159                       # What write queue length does an incoming req see
system.mem_ctrls.wrQLenPdf::25                    158                       # What write queue length does an incoming req see
system.mem_ctrls.wrQLenPdf::26                    158                       # What write queue length does an incoming req see
system.mem_ctrls.wrQLenPdf::27                    158                       # What write queue length does an incoming req see
system.mem_ctrls.wrQLenPdf::28                    158                       # What write queue length does an incoming req see
system.mem_ctrls.wrQLenPdf::29                    158                       # What write queue length does an incoming req see
system.mem_ctrls.wrQLenPdf::30                    158                       # What write queue length does an incoming req see
system.mem_ctrls.wrQLenPdf::31                    158                       # What write queue length does an incoming req see
system.mem_ctrls.wrQLenPdf::32                    158                       # What write queue length does an incoming req see
system.mem_ctrls.wrQLenPdf::33                      0                       # What write queue length does an incoming req see
system.mem_ctrls.wrQLenPdf::34                      0                       # What write queue length does an incoming req see
system.mem_ctrls.wrQLenPdf::35                      0                       # What write queue length does an incoming req see
system.mem_ctrls.wrQLenPdf::36                      0                       # What write queue length does an incoming req see
system.mem_ctrls.wrQLenPdf::37                      0                       # What write queue length does an incoming req see
system.mem_ctrls.wrQLenPdf::38                      0                       # What write queue length does an incoming req see
system.mem_ctrls.wrQLenPdf::39                      0                       # What write queue length does an incoming req see
system.mem_ctrls.wrQLenPdf::40                      0                       # What write queue length does an incoming req see
system.mem_ctrls.wrQLenPdf::41                      0                       # What write queue length does an incoming req see
system.mem_ctrls.wrQLenPdf::42                      0                       # What write queue length does an incoming req see
system.mem_ctrls.wrQLenPdf::43                      0                       # What write queue length does an incoming req see
system.mem_ctrls.wrQLenPdf::44                      0                       # What write queue length does an incoming req see
system.mem_ctrls.wrQLenPdf::45                      0                       # What write queue length does an incoming req see
system.mem_ctrls.wrQLenPdf::46                      0                       # What write queue length does an incoming req see
system.mem_ctrls.wrQLenPdf::47                      0                       # What write queue length does an incoming req see
system.mem_ctrls.wrQLenPdf::48                      0                       # What write queue length does an incoming req see
system.mem_ctrls.wrQLenPdf::49                      0                       # What write queue length does an incoming req see
system.mem_ctrls.wrQLenPdf::50                      0                       # What write queue length does an incoming req see
system.mem_ctrls.wrQLenPdf::51                      0                       # What write queue length does an incoming req see
system.mem_ctrls.wrQLenPdf::52                      0                       # What write queue length does an incoming req see
system.mem_ctrls.wrQLenPdf::53                      0                       # What write queue length does an incoming req see
system.mem_ctrls.wrQLenPdf::54                      0                       # What write queue length does an incoming req see
system.mem_ctrls.wrQLenPdf::55                      0                       # What write queue length does an incoming req see
system.mem_ctrls.wrQLenPdf::56                      0                       # What write queue length does an incoming req see
system.mem_ctrls.wrQLenPdf::57                      0                       # What write queue length does an incoming req see
system.mem_ctrls.wrQLenPdf::58                      0                       # What write queue length does an incoming req see
system.mem_ctrls.wrQLenPdf::59                      0                       # What write queue length does an incoming req see
system.mem_ctrls.wrQLenPdf::60                      0                       # What write queue length does an incoming req see
system.mem_ctrls.wrQLenPdf::61                      0                       # What write queue length does an incoming req see
system.mem_ctrls.wrQLenPdf::62                      0                       # What write queue length does an incoming req see
system.mem_ctrls.wrQLenPdf::63                      0                       # What write queue length does an incoming req see
system.mem_ctrls.bytesPerActivate::samples        11647                       # Bytes accessed per row activation
system.mem_ctrls.bytesPerActivate::mean     98.986520                       # Bytes accessed per row activation
system.mem_ctrls.bytesPerActivate::gmean    76.618001                       # Bytes accessed per row activation
system.mem_ctrls.bytesPerActivate::stdev   141.914349                       # Bytes accessed per row activation
system.mem_ctrls.bytesPerActivate::0-127         9895     84.96%     84.96% # Bytes accessed per row activation
system.mem_ctrls.bytesPerActivate::128-255         1223     10.50%     95.46% # Bytes accessed per row activation
system.mem_ctrls.bytesPerActivate::256-383          142      1.22%     96.68% # Bytes accessed per row activation
system.mem_ctrls.bytesPerActivate::384-511           67      0.58%     97.25% # Bytes accessed per row activation
system.mem_ctrls.bytesPerActivate::512-639           54      0.46%     97.72% # Bytes accessed per row activation
system.mem_ctrls.bytesPerActivate::640-767           38      0.33%     98.04% # Bytes accessed per row activation
system.mem_ctrls.bytesPerActivate::768-895           19      0.16%     98.21% # Bytes accessed per row activation
system.mem_ctrls.bytesPerActivate::896-1023           21      0.18%     98.39% # Bytes accessed per row activation
system.mem_ctrls.bytesPerActivate::1024-1151          188      1.61%    100.00% # Bytes accessed per row activation
system.mem_ctrls.bytesPerActivate::total        11647                       # Bytes accessed per row activation
system.mem_ctrls.rdPerTurnAround::samples          158                       # Reads before turning the bus around for writes
system.mem_ctrls.rdPerTurnAround::mean      97.367089                       # Reads before turning the bus around for writes
system.mem_ctrls.rdPerTurnAround::gmean     28.359897                       # Reads before turning the bus around for writes
system.mem_ctrls.rdPerTurnAround::stdev    370.284765                       # Reads before turning the bus around for writes
system.mem_ctrls.rdPerTurnAround::0-127           145     91.77%     91.77% # Reads before turning the bus around for writes
system.mem_ctrls.rdPerTurnAround::128-255            5      3.16%     94.94% # Reads before turning the bus around for writes
system.mem_ctrls.rdPerTurnAround::256-383            1      0.63%     95.57% # Reads before turning the bus around for writes
system.mem_ctrls.rdPerTurnAround::384-511            1      0.63%     96.20% # Reads before turning the bus around for writes
system.mem_ctrls.rdPerTurnAround::640-767            1      0.63%     96.84% # Reads before turning the bus around for writes
system.mem_ctrls.rdPerTurnAround::1280-1407            1      0.63%     97.47% # Reads before turning the bus around for writes
system.mem_ctrls.rdPerTurnAround::1408-1535            1      0.63%     98.10% # Reads before turning the bus around for writes
system.mem_ctrls.rdPerTurnAround::1792-1919            2      1.27%     99.37% # Reads before turning the bus around for writes
system.mem_ctrls.rdPerTurnAround::3328-3455            1      0.63%    100.00% # Reads before turning the bus around for writes
system.mem_ctrls.rdPerTurnAround::total           158                       # Reads before turning the bus around for writes
system.mem_ctrls.wrPerTurnAround::samples          158                       # Writes before turning the bus around for reads
system.mem_ctrls.wrPerTurnAround::mean      16.778481                       # Writes before turning the bus around for reads
system.mem_ctrls.wrPerTurnAround::gmean     16.749810                       # Writes before turning the bus around for reads
system.mem_ctrls.wrPerTurnAround::stdev      0.994401                       # Writes before turning the bus around for reads
system.mem_ctrls.wrPerTurnAround::16               96     60.76%     60.76% # Writes before turning the bus around for reads
system.mem_ctrls.wrPerTurnAround::17                4      2.53%     63.29% # Writes before turning the bus around for reads
system.mem_ctrls.wrPerTurnAround::18               55     34.81%     98.10% # Writes before turning the bus around for reads
system.mem_ctrls.wrPerTurnAround::19                3      1.90%    100.00% # Writes before turning the bus around for reads
system.mem_ctrls.wrPerTurnAround::total           158                       # Writes before turning the bus around for reads
system.mem_ctrls.bytesReadDRAM                 985088                       # Total number of bytes read from DRAM
system.mem_ctrls.bytesReadWrQ                 1091584                       # Total number of bytes read from write queue
system.mem_ctrls.bytesWritten                  169664                       # Total number of bytes written to DRAM
system.mem_ctrls.bytesReadSys                 2076672                       # Total read bytes from the system interface side
system.mem_ctrls.bytesWrittenSys              1227136                       # Total written bytes from the system interface side
system.mem_ctrls.avgRdBW                         9.81                       # Average DRAM read bandwidth in MiByte/s
system.mem_ctrls.avgWrBW                         1.69                       # Average achieved write bandwidth in MiByte/s
system.mem_ctrls.avgRdBWSys                     20.68                       # Average system read bandwidth in MiByte/s
system.mem_ctrls.avgWrBWSys                     12.22                       # Average system write bandwidth in MiByte/s
system.mem_ctrls.peakBW                      12800.00                       # Theoretical peak bandwidth in MiByte/s
system.mem_ctrls.busUtil                         0.09                       # Data bus utilization in percentage
system.mem_ctrls.busUtilRead                     0.08                       # Data bus utilization in percentage for reads
system.mem_ctrls.busUtilWrite                    0.01                       # Data bus utilization in percentage for writes
system.mem_ctrls.totGap                  100397462000                       # Total gap between requests
system.mem_ctrls.avgGap                    1944858.05                       # Average gap between requests
system.mem_ctrls.masterReadBytes::.cpu.inst        95360                       # Per-master bytes read from memory
system.mem_ctrls.masterReadBytes::.cpu.data       889728                       # Per-master bytes read from memory
system.mem_ctrls.masterWriteBytes::.writebacks       169664                       # Per-master bytes write to memory
system.mem_ctrls.masterReadRate::.cpu.inst 949824.731639153790                       # Per-master bytes read from memory rate (Bytes/sec)
system.mem_ctrls.masterReadRate::.cpu.data 8862055.986072158441                       # Per-master bytes read from memory rate (Bytes/sec)
system.mem_ctrls.masterWriteRate::.writebacks 1689923.062802279834                       # Per-master bytes write to memory rate (Bytes/sec)
system.mem_ctrls.masterReadAccesses::.cpu.inst        16544                       # Per-master read serviced memory accesses
system.mem_ctrls.masterReadAccesses::.cpu.data        15904                       # Per-master read serviced memory accesses
system.mem_ctrls.masterWriteAccesses::.writebacks        19174                       # Per-master write serviced memory accesses
system.mem_ctrls.masterReadTotalLat::.cpu.inst     42365000                       # Per-master read total memory access latency
system.mem_ctrls.masterReadTotalLat::.cpu.data    514027750                       # Per-master read total memory access latency
system.mem_ctrls.masterWriteTotalLat::.writebacks 2578602943500                       # Per-master write total memory access latency
system.mem_ctrls.masterReadAvgLat::.cpu.inst      2560.75                       # Per-master read average memory access latency
system.mem_ctrls.masterReadAvgLat::.cpu.data     32320.66                       # Per-master read average memory access latency
system.mem_ctrls.masterWriteAvgLat::.writebacks 134484350.87                       # Per-master write average memory access latency
system.mem_ctrls.pageHitRate                    35.38                       # Row buffer hit rate, read and write combined
system.mem_ctrls.rank1.actEnergy              3334380                       # Energy for activate commands per rank (pJ)
system.mem_ctrls.rank1.preEnergy              1772265                       # Energy for precharge commands per rank (pJ)
system.mem_ctrls.rank1.readEnergy             5269320                       # Energy for read commands per rank (pJ)
system.mem_ctrls.rank1.writeEnergy            1994040                       # Energy for write commands per rank (pJ)
system.mem_ctrls.rank1.refreshEnergy     7925168160.000001                       # Energy for refresh commands per rank (pJ)
system.mem_ctrls.rank1.actBackEnergy       2096371650                       # Energy for active background per rank (pJ)
system.mem_ctrls.rank1.preBackEnergy      36787262880                       # Energy for precharge background per rank (pJ)
system.mem_ctrls.rank1.actPowerDownEnergy            0                       # Energy for active power-down per rank (pJ)
system.mem_ctrls.rank1.prePowerDownEnergy            0                       # Energy for precharge power-down per rank (pJ)
system.mem_ctrls.rank1.selfRefreshEnergy            0                       # Energy for self refresh per rank (pJ)
system.mem_ctrls.rank1.totalEnergy        46821172695                       # Total energy per rank (pJ)
system.mem_ctrls.rank1.averagePower        466.358093                       # Core power per rank (mW)
system.mem_ctrls.rank1.totalIdleTime                0                       # Total Idle time Per DRAM Rank
system.mem_ctrls.rank1.memoryStateTime::IDLE  95617929250                       # Time in different power states
system.mem_ctrls.rank1.memoryStateTime::REF   3352440000                       # Time in different power states
system.mem_ctrls.rank1.memoryStateTime::SREF            0                       # Time in different power states
system.mem_ctrls.rank1.memoryStateTime::PRE_PDN            0                       # Time in different power states
system.mem_ctrls.rank1.memoryStateTime::ACT   1427100750                       # Time in different power states
system.mem_ctrls.rank1.memoryStateTime::ACT_PDN            0                       # Time in different power states
system.mem_ctrls.rank0.actEnergy             79853760                       # Energy for activate commands per rank (pJ)
system.mem_ctrls.rank0.preEnergy             42428100                       # Energy for precharge commands per rank (pJ)
system.mem_ctrls.rank0.readEnergy           104629560                       # Energy for read commands per rank (pJ)
system.mem_ctrls.rank0.writeEnergy           11844180                       # Energy for write commands per rank (pJ)
system.mem_ctrls.rank0.refreshEnergy     7925168160.000001                       # Energy for refresh commands per rank (pJ)
system.mem_ctrls.rank0.actBackEnergy      16067482050                       # Energy for active background per rank (pJ)
system.mem_ctrls.rank0.preBackEnergy      25022117280                       # Energy for precharge background per rank (pJ)
system.mem_ctrls.rank0.actPowerDownEnergy            0                       # Energy for active power-down per rank (pJ)
system.mem_ctrls.rank0.prePowerDownEnergy            0                       # Energy for precharge power-down per rank (pJ)
system.mem_ctrls.rank0.selfRefreshEnergy            0                       # Energy for self refresh per rank (pJ)
system.mem_ctrls.rank0.totalEnergy        49253523090                       # Total energy per rank (pJ)
system.mem_ctrls.rank0.averagePower        490.585302                       # Core power per rank (mW)
system.mem_ctrls.rank0.totalIdleTime                0                       # Total Idle time Per DRAM Rank
system.mem_ctrls.rank0.memoryStateTime::IDLE  64886813500                       # Time in different power states
system.mem_ctrls.rank0.memoryStateTime::REF   3352440000                       # Time in different power states
system.mem_ctrls.rank0.memoryStateTime::SREF            0                       # Time in different power states
system.mem_ctrls.rank0.memoryStateTime::PRE_PDN            0                       # Time in different power states
system.mem_ctrls.rank0.memoryStateTime::ACT  32158216500                       # Time in different power states
system.mem_ctrls.rank0.memoryStateTime::ACT_PDN            0                       # Time in different power states
system.cpu_clk_domain.clock                       500                       # Clock period in ticks
system.cpu.numPwrStateTransitions                   1                       # Number of power state transitions
system.cpu.pwrStateResidencyTicks::ON    100397470000                       # Cumulative time (in ticks) in various power states
system.cpu.icache.pwrStateResidencyTicks::UNDEFINED 100397470000                       # Cumulative time (in ticks) in various power states
system.cpu.icache.demand_hits::.cpu.inst     61439708                       # number of demand (read+write) hits
system.cpu.icache.demand_hits::total         61439708                       # number of demand (read+write) hits
system.cpu.icache.overall_hits::.cpu.inst     61439708                       # number of overall hits
system.cpu.icache.overall_hits::total        61439708                       # number of overall hits
system.cpu.icache.demand_misses::.cpu.inst        16544                       # number of demand (read+write) misses
system.cpu.icache.demand_misses::total          16544                       # number of demand (read+write) misses
system.cpu.icache.overall_misses::.cpu.inst        16544                       # number of overall misses
system.cpu.icache.overall_misses::total         16544                       # number of overall misses
system.cpu.icache.demand_miss_latency::.cpu.inst    422857500                       # number of demand (read+write) miss cycles
system.cpu.icache.demand_miss_latency::total    422857500                       # number of demand (read+write) miss cycles
system.cpu.icache.overall_miss_latency::.cpu.inst    422857500                       # number of overall miss cycles
system.cpu.icache.overall_miss_latency::total    422857500                       # number of overall miss cycles
system.cpu.icache.demand_accesses::.cpu.inst     61456252                       # number of demand (read+write) accesses
system.cpu.icache.demand_accesses::total     61456252                       # number of demand (read+write) accesses
system.cpu.icache.overall_accesses::.cpu.inst     61456252                       # number of overall (read+write) accesses
system.cpu.icache.overall_accesses::total     61456252                       # number of overall (read+write) accesses
system.cpu.icache.demand_miss_rate::.cpu.inst     0.000269                       # miss rate for demand accesses
system.cpu.icache.demand_miss_rate::total     0.000269                       # miss rate for demand accesses
system.cpu.icache.overall_miss_rate::.cpu.inst     0.000269                       # miss rate for overall accesses
system.cpu.icache.overall_miss_rate::total     0.000269                       # miss rate for overall accesses
system.cpu.icache.demand_avg_miss_latency::.cpu.inst 25559.568424                       # average overall miss latency
system.cpu.icache.demand_avg_miss_latency::total 25559.568424                       # average overall miss latency
system.cpu.icache.overall_avg_miss_latency::.cpu.inst 25559.568424                       # average overall miss latency
system.cpu.icache.overall_avg_miss_latency::total 25559.568424                       # average overall miss latency
system.cpu.icache.blocked_cycles::no_mshrs            0                       # number of cycles access was blocked
system.cpu.icache.blocked_cycles::no_targets            0                       # number of cycles access was blocked
system.cpu.icache.blocked::no_mshrs                 0                       # number of cycles access was blocked
system.cpu.icache.blocked::no_targets               0                       # number of cycles access was blocked
system.cpu.icache.avg_blocked_cycles::no_mshrs          nan                       # average number of cycles each access was blocked
system.cpu.icache.avg_blocked_cycles::no_targets          nan                       # average number of cycles each access was blocked
system.cpu.icache.writebacks::.writebacks        16480                       # number of writebacks
system.cpu.icache.writebacks::total             16480                       # number of writebacks
system.cpu.icache.demand_mshr_misses::.cpu.inst        16544                       # number of demand (read+write) MSHR misses
system.cpu.icache.demand_mshr_misses::total        16544                       # number of demand (read+write) MSHR misses
system.cpu.icache.overall_mshr_misses::.cpu.inst        16544                       # number of overall MSHR misses
system.cpu.icache.overall_mshr_misses::total        16544                       # number of overall MSHR misses
system.cpu.icache.demand_mshr_miss_latency::.cpu.inst    406313500                       # number of demand (read+write) MSHR miss cycles
system.cpu.icache.demand_mshr_miss_latency::total    406313500                       # number of demand (read+write) MSHR miss cycles
system.cpu.icache.overall_mshr_miss_latency::.cpu.inst    406313500                       # number of overall MSHR miss cycles
system.cpu.icache.overall_mshr_miss_latency::total    406313500                       # number of overall MSHR miss cycles
system.cpu.icache.demand_mshr_miss_rate::.cpu.inst     0.000269                       # mshr miss rate for demand accesses
system.cpu.icache.demand_mshr_miss_rate::total     0.000269                       # mshr miss rate for demand accesses
system.cpu.icache.overall_mshr_miss_rate::.cpu.inst     0.000269                       # mshr miss rate for overall accesses
system.cpu.icache.overall_mshr_miss_rate::total     0.000269                       # mshr miss rate for overall accesses
system.cpu.icache.demand_avg_mshr_miss_latency::.cpu.inst 24559.568424                       # average overall mshr miss latency
system.cpu.icache.demand_avg_mshr_miss_latency::total 24559.568424                       # average overall mshr miss latency
system.cpu.icache.overall_avg_mshr_miss_latency::.cpu.inst 24559.568424                       # average overall mshr miss latency
system.cpu.icache.overall_avg_mshr_miss_latency::total 24559.568424                       # average overall mshr miss latency
system.cpu.icache.replacements                  16480                       # number of replacements
system.cpu.icache.ReadReq_hits::.cpu.inst     61439708                       # number of ReadReq hits
system.cpu.icache.ReadReq_hits::total        61439708                       # number of ReadReq hits
system.cpu.icache.ReadReq_misses::.cpu.inst        16544                       # number of ReadReq misses
system.cpu.icache.ReadReq_misses::total         16544                       # number of ReadReq misses
system.cpu.icache.ReadReq_miss_latency::.cpu.inst    422857500                       # number of ReadReq miss cycles
system.cpu.icache.ReadReq_miss_latency::total    422857500                       # number of ReadReq miss cycles
system.cpu.icache.ReadReq_accesses::.cpu.inst     61456252                       # number of ReadReq accesses(hits+misses)
system.cpu.icache.ReadReq_accesses::total     61456252                       # number of ReadReq accesses(hits+misses)
system.cpu.icache.ReadReq_miss_rate::.cpu.inst     0.000269                       # miss rate for ReadReq accesses
system.cpu.icache.ReadReq_miss_rate::total     0.000269                       # miss rate for ReadReq accesses
system.cpu.icache.ReadReq_avg_miss_latency::.cpu.inst 25559.568424                       # average ReadReq miss latency
system.cpu.icache.ReadReq_avg_miss_latency::total 25559.568424                       # average ReadReq miss latency
system.cpu.icache.ReadReq_mshr_misses::.cpu.inst        16544                       # number of ReadReq MSHR misses
system.cpu.icache.ReadReq_mshr_misses::total        16544                       # number of ReadReq MSHR misses
system.cpu.icache.ReadReq_mshr_miss_latency::.cpu.inst    406313500                       # number of ReadReq MSHR miss cycles
system.cpu.icache.ReadReq_mshr_miss_latency::total    406313500                       # number of ReadReq MSHR miss cycles
system.cpu.icache.ReadReq_mshr_miss_rate::.cpu.inst     0.000269                       # mshr miss rate for ReadReq accesses
system.cpu.icache.ReadReq_mshr_miss_rate::total     0.000269                       # mshr miss rate for ReadReq accesses
system.cpu.icache.ReadReq_avg_mshr_miss_latency::.cpu.inst 24559.568424                       # average ReadReq mshr miss latency
system.cpu.icache.ReadReq_avg_mshr_miss_latency::total 24559.568424                       # average ReadReq mshr miss latency
system.cpu.icache.tags.pwrStateResidencyTicks::UNDEFINED 100397470000                       # Cumulative time (in ticks) in various power states
system.cpu.icache.tags.tagsinuse            63.996980                       # Cycle average of tags in use
system.cpu.icache.tags.total_refs            61456252                       # Total number of references to valid blocks.
system.cpu.icache.tags.sampled_refs             16544                       # Sample count of references to valid blocks.
system.cpu.icache.tags.avg_refs           3714.715426                       # Average number of references to valid blocks.
system.cpu.icache.tags.warmup_cycle             77000                       # Cycle when the warmup percentage was hit.
system.cpu.icache.tags.occ_blocks::.cpu.inst    63.996980                       # Average occupied blocks per requestor
system.cpu.icache.tags.occ_percent::.cpu.inst     0.999953                       # Average percentage of cache occupancy
system.cpu.icache.tags.occ_percent::total     0.999953                       # Average percentage of cache occupancy
system.cpu.icache.tags.occ_task_id_blocks::1024           64                       # Occupied blocks per task id
system.cpu.icache.tags.age_task_id_blocks_1024::0           56                       # Occupied blocks per task id
system.cpu.icache.tags.age_task_id_blocks_1024::1            8                       # Occupied blocks per task id
system.cpu.icache.tags.occ_task_id_percent::1024            1                       # Percentage of cache occupancy per task id
system.cpu.icache.tags.tag_accesses         122929048                       # Number of tag accesses
system.cpu.icache.tags.data_accesses        122929048                       # Number of data accesses
system.cpu.dtb.walker.pwrStateResidencyTicks::UNDEFINED 100397470000                       # Cumulative time (in ticks) in various power states
system.cpu.dtb.stage2_mmu.stage2_tlb.walker.pwrStateResidencyTicks::UNDEFINED 100397470000                       # Cumulative time (in ticks) in various power states
system.cpu.itb.walker.pwrStateResidencyTicks::UNDEFINED 100397470000                       # Cumulative time (in ticks) in various power states
system.cpu.itb.stage2_mmu.stage2_tlb.walker.pwrStateResidencyTicks::UNDEFINED 100397470000                       # Cumulative time (in ticks) in various power states
system.cpu.dcache.pwrStateResidencyTicks::UNDEFINED 100397470000                       # Cumulative time (in ticks) in various power states
system.cpu.dcache.demand_hits::.cpu.data     37464126                       # number of demand (read+write) hits
system.cpu.dcache.demand_hits::total         37464126                       # number of demand (read+write) hits
system.cpu.dcache.overall_hits::.cpu.data     37464126                       # number of overall hits
system.cpu.dcache.overall_hits::total        37464126                       # number of overall hits
system.cpu.dcache.demand_misses::.cpu.data        15904                       # number of demand (read+write) misses
system.cpu.dcache.demand_misses::total          15904                       # number of demand (read+write) misses
system.cpu.dcache.overall_misses::.cpu.data        15904                       # number of overall misses
system.cpu.dcache.overall_misses::total         15904                       # number of overall misses
system.cpu.dcache.demand_miss_latency::.cpu.data   1009766500                       # number of demand (read+write) miss cycles
system.cpu.dcache.demand_miss_latency::total   1009766500                       # number of demand (read+write) miss cycles
system.cpu.dcache.overall_miss_latency::.cpu.data   1009766500                       # number of overall miss cycles
system.cpu.dcache.overall_miss_latency::total   1009766500                       # number of overall miss cycles
system.cpu.dcache.demand_accesses::.cpu.data     37480030                       # number of demand (read+write) accesses
system.cpu.dcache.demand_accesses::total     37480030                       # number of demand (read+write) accesses
system.cpu.dcache.overall_accesses::.cpu.data     37480030                       # number of overall (read+write) accesses
system.cpu.dcache.overall_accesses::total     37480030                       # number of overall (read+write) accesses
system.cpu.dcache.demand_miss_rate::.cpu.data     0.000424                       # miss rate for demand accesses
system.cpu.dcache.demand_miss_rate::total     0.000424                       # miss rate for demand accesses
system.cpu.dcache.overall_miss_rate::.cpu.data     0.000424                       # miss rate for overall accesses
system.cpu.dcache.overall_miss_rate::total     0.000424                       # miss rate for overall accesses
system.cpu.dcache.demand_avg_miss_latency::.cpu.data 63491.354376                       # average overall miss latency
system.cpu.dcache.demand_avg_miss_latency::total 63491.354376                       # average overall miss latency
system.cpu.dcache.overall_avg_miss_latency::.cpu.data 63491.354376                       # average overall miss latency
system.cpu.dcache.overall_avg_miss_latency::total 63491.354376                       # average overall miss latency
system.cpu.dcache.blocked_cycles::no_mshrs            0                       # number of cycles access was blocked
system.cpu.dcache.blocked_cycles::no_targets            0                       # number of cycles access was blocked
system.cpu.dcache.blocked::no_mshrs                 0                       # number of cycles access was blocked
system.cpu.dcache.blocked::no_targets               0                       # number of cycles access was blocked
system.cpu.dcache.avg_blocked_cycles::no_mshrs          nan                       # average number of cycles each access was blocked
system.cpu.dcache.avg_blocked_cycles::no_targets          nan                       # average number of cycles each access was blocked
system.cpu.dcache.writebacks::.writebacks         3228                       # number of writebacks
system.cpu.dcache.writebacks::total              3228                       # number of writebacks
system.cpu.dcache.demand_mshr_misses::.cpu.data        15904                       # number of demand (read+write) MSHR misses
system.cpu.dcache.demand_mshr_misses::total        15904                       # number of demand (read+write) MSHR misses
system.cpu.dcache.overall_mshr_misses::.cpu.data        15904                       # number of overall MSHR misses
system.cpu.dcache.overall_mshr_misses::total        15904                       # number of overall MSHR misses
system.cpu.dcache.demand_mshr_miss_latency::.cpu.data    993862500                       # number of demand (read+write) MSHR miss cycles
system.cpu.dcache.demand_mshr_miss_latency::total    993862500                       # number of demand (read+write) MSHR miss cycles
system.cpu.dcache.overall_mshr_miss_latency::.cpu.data    993862500                       # number of overall MSHR miss cycles
system.cpu.dcache.overall_mshr_miss_latency::total    993862500                       # number of overall MSHR miss cycles
system.cpu.dcache.demand_mshr_miss_rate::.cpu.data     0.000424                       # mshr miss rate for demand accesses
system.cpu.dcache.demand_mshr_miss_rate::total     0.000424                       # mshr miss rate for demand accesses
system.cpu.dcache.overall_mshr_miss_rate::.cpu.data     0.000424                       # mshr miss rate for overall accesses
system.cpu.dcache.overall_mshr_miss_rate::total     0.000424                       # mshr miss rate for overall accesses
system.cpu.dcache.demand_avg_mshr_miss_latency::.cpu.data 62491.354376                       # average overall mshr miss latency
system.cpu.dcache.demand_avg_mshr_miss_latency::total 62491.354376                       # average overall mshr miss latency
system.cpu.dcache.overall_avg_mshr_miss_latency::.cpu.data 62491.354376                       # average overall mshr miss latency
system.cpu.dcache.overall_avg_mshr_miss_latency::total 62491.354376                       # average overall mshr miss latency
system.cpu.dcache.replacements                  15840                       # number of replacements
system.cpu.dcache.ReadReq_hits::.cpu.data     25560720                       # number of ReadReq hits
system.cpu.dcache.ReadReq_hits::total        25560720                       # number of ReadReq hits
system.cpu.dcache.ReadReq_misses::.cpu.data        13498                       # number of ReadReq misses
system.cpu.dcache.ReadReq_misses::total         13498                       # number of ReadReq misses
system.cpu.dcache.ReadReq_miss_latency::.cpu.data    928361000                       # number of ReadReq miss cycles
system.cpu.dcache.ReadReq_miss_latency::total    928361000                       # number of ReadReq miss cycles
system.cpu.dcache.ReadReq_accesses::.cpu.data     25574218                       # number of ReadReq accesses(hits+misses)
system.cpu.dcache.ReadReq_accesses::total     25574218                       # number of ReadReq accesses(hits+misses)
system.cpu.dcache.ReadReq_miss_rate::.cpu.data     0.000528                       # miss rate for ReadReq accesses
system.cpu.dcache.ReadReq_miss_rate::total     0.000528                       # miss rate for ReadReq accesses
system.cpu.dcache.ReadReq_avg_miss_latency::.cpu.data 68777.670766                       # average ReadReq miss latency
system.cpu.dcache.ReadReq_avg_miss_latency::total 68777.670766                       # average ReadReq miss latency
system.cpu.dcache.ReadReq_mshr_misses::.cpu.data        13498                       # number of ReadReq MSHR misses
system.cpu.dcache.ReadReq_mshr_misses::total        13498                       # number of ReadReq MSHR misses
system.cpu.dcache.ReadReq_mshr_miss_latency::.cpu.data    914863000                       # number of ReadReq MSHR miss cycles
system.cpu.dcache.ReadReq_mshr_miss_latency::total    914863000                       # number of ReadReq MSHR miss cycles
system.cpu.dcache.ReadReq_mshr_miss_rate::.cpu.data     0.000528                       # mshr miss rate for ReadReq accesses
system.cpu.dcache.ReadReq_mshr_miss_rate::total     0.000528                       # mshr miss rate for ReadReq accesses
system.cpu.dcache.ReadReq_avg_mshr_miss_latency::.cpu.data 67777.670766                       # average ReadReq mshr miss latency
system.cpu.dcache.ReadReq_avg_mshr_miss_latency::total 67777.670766                       # average ReadReq mshr miss latency
system.cpu.dcache.WriteReq_hits::.cpu.data     11903406                       # number of WriteReq hits
system.cpu.dcache.WriteReq_hits::total       11903406                       # number of WriteReq hits
system.cpu.dcache.WriteReq_misses::.cpu.data         2406                       # number of WriteReq misses
system.cpu.dcache.WriteReq_misses::total         2406                       # number of WriteReq misses
system.cpu.dcache.WriteReq_miss_latency::.cpu.data     81405500                       # number of WriteReq miss cycles
system.cpu.dcache.WriteReq_miss_latency::total     81405500                       # number of WriteReq miss cycles
system.cpu.dcache.WriteReq_accesses::.cpu.data     11905812                       # number of WriteReq accesses(hits+misses)
system.cpu.dcache.WriteReq_accesses::total     11905812                       # number of WriteReq accesses(hits+misses)
system.cpu.dcache.WriteReq_miss_rate::.cpu.data     0.000202                       # miss rate for WriteReq accesses
system.cpu.dcache.WriteReq_miss_rate::total     0.000202                       # miss rate for WriteReq accesses
system.cpu.dcache.WriteReq_avg_miss_latency::.cpu.data 33834.372402                       # average WriteReq miss latency
system.cpu.dcache.WriteReq_avg_miss_latency::total 33834.372402                       # average WriteReq miss latency
system.cpu.dcache.WriteReq_mshr_misses::.cpu.data         2406                       # number of WriteReq MSHR misses
system.cpu.dcache.WriteReq_mshr_misses::total         2406                       # number of WriteReq MSHR misses
system.cpu.dcache.WriteReq_mshr_miss_latency::.cpu.data     78999500                       # number of WriteReq MSHR miss cycles
system.cpu.dcache.WriteReq_mshr_miss_latency::total     78999500                       # number of WriteReq MSHR miss cycles
system.cpu.dcache.WriteReq_mshr_miss_rate::.cpu.data     0.000202                       # mshr miss rate for WriteReq accesses
system.cpu.dcache.WriteReq_mshr_miss_rate::total     0.000202                       # mshr miss rate for WriteReq accesses
system.cpu.dcache.WriteReq_avg_mshr_miss_latency::.cpu.data 32834.372402                       # average WriteReq mshr miss latency
system.cpu.dcache.WriteReq_avg_mshr_miss_latency::total 32834.372402                       # average WriteReq mshr miss latency
system.cpu.dcache.LoadLockedReq_hits::.cpu.data           46                       # number of LoadLockedReq hits
system.cpu.dcache.LoadLockedReq_hits::total           46                       # number of LoadLockedReq hits
system.cpu.dcache.LoadLockedReq_accesses::.cpu.data           46                       # number of LoadLockedReq accesses(hits+misses)
system.cpu.dcache.LoadLockedReq_accesses::total           46                       # number of LoadLockedReq accesses(hits+misses)
system.cpu.dcache.StoreCondReq_hits::.cpu.data           46                       # number of StoreCondReq hits
system.cpu.dcache.StoreCondReq_hits::total           46                       # number of StoreCondReq hits
system.cpu.dcache.StoreCondReq_accesses::.cpu.data           46                       # number of StoreCondReq accesses(hits+misses)
system.cpu.dcache.StoreCondReq_accesses::total           46                       # number of StoreCondReq accesses(hits+misses)
system.cpu.dcache.tags.pwrStateResidencyTicks::UNDEFINED 100397470000                       # Cumulative time (in ticks) in various power states
system.cpu.dcache.tags.tagsinuse            63.995883                       # Cycle average of tags in use
system.cpu.dcache.tags.total_refs            37480122                       # Total number of references to valid blocks.
system.cpu.dcache.tags.sampled_refs             15904                       # Sample count of references to valid blocks.
system.cpu.dcache.tags.avg_refs           2356.647510                       # Average number of references to valid blocks.
system.cpu.dcache.tags.warmup_cycle            148000                       # Cycle when the warmup percentage was hit.
system.cpu.dcache.tags.occ_blocks::.cpu.data    63.995883                       # Average occupied blocks per requestor
system.cpu.dcache.tags.occ_percent::.cpu.data     0.999936                       # Average percentage of cache occupancy
system.cpu.dcache.tags.occ_percent::total     0.999936                       # Average percentage of cache occupancy
system.cpu.dcache.tags.occ_task_id_blocks::1024           64                       # Occupied blocks per task id
system.cpu.dcache.tags.age_task_id_blocks_1024::0           35                       # Occupied blocks per task id
system.cpu.dcache.tags.age_task_id_blocks_1024::1           29                       # Occupied blocks per task id
system.cpu.dcache.tags.occ_task_id_percent::1024            1                       # Percentage of cache occupancy per task id
system.cpu.dcache.tags.tag_accesses          74976148                       # Number of tag accesses
system.cpu.dcache.tags.data_accesses         74976148                       # Number of data accesses

---------- End Simulation Statistics   ----------
