
---------- Begin Simulation Statistics ----------
final_tick                                72519024000                       # Number of ticks from beginning of simulation (restored from checkpoints and never reset)
host_inst_rate                                 822080                       # Simulator instruction rate (inst/s)
host_mem_usage                                 698276                       # Number of bytes of host memory used
host_op_rate                                  1087229                       # Simulator op (including micro ops) rate (op/s)
host_seconds                                    51.66                       # Real time elapsed on the host
host_tick_rate                             1403737976                       # Simulator tick rate (ticks/s)
sim_freq                                 1000000000000                       # Frequency of simulated ticks
sim_insts                                    42469695                       # Number of instructions simulated
sim_ops                                      56167697                       # Number of ops (including micro ops) simulated
sim_seconds                                  0.072519                       # Number of seconds simulated
sim_ticks                                 72519024000                       # Number of ticks simulated
system.cpu.Branches                           6851929                       # Number of branches fetched
system.cpu.committedInsts                    42469695                       # Number of instructions committed
system.cpu.committedOps                      56167697                       # Number of ops (including micro ops) committed
system.cpu.dtb.accesses                             0                       # DTB accesses
system.cpu.dtb.align_faults                         0                       # Number of TLB faults due to alignment restrictions
system.cpu.dtb.domain_faults                        0                       # Number of TLB faults due to domain restrictions
system.cpu.dtb.flush_entries                        0                       # Number of entries that have been flushed from TLB
system.cpu.dtb.flush_tlb                            0                       # Number of times complete TLB was flushed
system.cpu.dtb.flush_tlb_asid                       0                       # Number of times TLB was flushed by ASID
system.cpu.dtb.flush_tlb_mva                        0                       # Number of times TLB was flushed by MVA
system.cpu.dtb.flush_tlb_mva_asid                   0                       # Number of times TLB was flushed by MVA & ASID
system.cpu.dtb.hits                                 0                       # DTB hits
system.cpu.dtb.inst_accesses                        0                       # ITB inst accesses
system.cpu.dtb.inst_hits                            0                       # ITB inst hits
system.cpu.dtb.inst_misses                          0                       # ITB inst misses
system.cpu.dtb.misses                               0                       # DTB misses
system.cpu.dtb.perms_faults                         0                       # Number of TLB faults due to permissions restrictions
system.cpu.dtb.prefetch_faults                      0                       # Number of TLB faults due to prefetch
system.cpu.dtb.read_accesses                        0                       # DTB read accesses
system.cpu.dtb.read_hits                            0                       # DTB read hits
system.cpu.dtb.read_misses                          0                       # DTB read misses
system.cpu.dtb.stage2_mmu.stage2_tlb.accesses            0                       # DTB accesses
system.cpu.dtb.stage2_mmu.stage2_tlb.align_faults            0                       # Number of TLB faults due to alignment restrictions
system.cpu.dtb.stage2_mmu.stage2_tlb.domain_faults            0                       # Number of TLB faults due to domain restrictions
system.cpu.dtb.stage2_mmu.stage2_tlb.flush_entries            0                       # Number of entries that have been flushed from TLB
system.cpu.dtb.stage2_mmu.stage2_tlb.flush_tlb            0                       # Number of times complete TLB was flushed
system.cpu.dtb.stage2_mmu.stage2_tlb.flush_tlb_asid            0                       # Number of times TLB was flushed by ASID
system.cpu.dtb.stage2_mmu.stage2_tlb.flush_tlb_mva            0                       # Number of times TLB was flushed by MVA
system.cpu.dtb.stage2_mmu.stage2_tlb.flush_tlb_mva_asid            0                       # Number of times TLB was flushed by MVA & ASID
system.cpu.dtb.stage2_mmu.stage2_tlb.hits            0                       # DTB hits
system.cpu.dtb.stage2_mmu.stage2_tlb.inst_accesses            0                       # ITB inst accesses
system.cpu.dtb.stage2_mmu.stage2_tlb.inst_hits            0                       # ITB inst hits
system.cpu.dtb.stage2_mmu.stage2_tlb.inst_misses            0                       # ITB inst misses
system.cpu.dtb.stage2_mmu.stage2_tlb.misses            0                       # DTB misses
system.cpu.dtb.stage2_mmu.stage2_tlb.perms_faults            0                       # Number of TLB faults due to permissions restrictions
system.cpu.dtb.stage2_mmu.stage2_tlb.prefetch_faults            0                       # Number of TLB faults due to prefetch
system.cpu.dtb.stage2_mmu.stage2_tlb.read_accesses            0                       # DTB read accesses
system.cpu.dtb.stage2_mmu.stage2_tlb.read_hits            0                       # DTB read hits
system.cpu.dtb.stage2_mmu.stage2_tlb.read_misses            0                       # DTB read misses
system.cpu.dtb.stage2_mmu.stage2_tlb.walker.walkRequestOrigin_Requested::Data            0                       # Table walker requests started/completed, data/inst
system.cpu.dtb.stage2_mmu.stage2_tlb.walker.walkRequestOrigin_Requested::Inst            0                       # Table walker requests started/completed, data/inst
system.cpu.dtb.stage2_mmu.stage2_tlb.walker.walkRequestOrigin_Requested::total            0                       # Table walker requests started/completed, data/inst
system.cpu.dtb.stage2_mmu.stage2_tlb.walker.walkRequestOrigin_Completed::Data            0                       # Table walker requests started/completed, data/inst
system.cpu.dtb.stage2_mmu.stage2_tlb.walker.walkRequestOrigin_Completed::Inst            0                       # Table walker requests started/completed, data/inst
system.cpu.dtb.stage2_mmu.stage2_tlb.walker.walkRequestOrigin_Completed::total            0                       # Table walker requests started/completed, data/inst
system.cpu.dtb.stage2_mmu.stage2_tlb.walker.walkRequestOrigin::total            0                       # Table walker requests started/completed, data/inst
system.cpu.dtb.stage2_mmu.stage2_tlb.walker.walks            0                       # Table walker walks requested
system.cpu.dtb.stage2_mmu.stage2_tlb.write_accesses            0                       # DTB write accesses
system.cpu.dtb.stage2_mmu.stage2_tlb.write_hits            0                       # DTB write hits
system.cpu.dtb.stage2_mmu.stage2_tlb.write_misses            0                       # DTB write misses
system.cpu.dtb.walker.walkRequestOrigin_Requested::Data            0                       # Table walker requests started/completed, data/inst
system.cpu.dtb.walker.walkRequestOrigin_Requested::Inst            0                       # Table walker requests started/completed, data/inst
system.cpu.dtb.walker.walkRequestOrigin_Requested::total            0                       # Table walker requests started/completed, data/inst
system.cpu.dtb.walker.walkRequestOrigin_Completed::Data            0                       # Table walker requests started/completed, data/inst
system.cpu.dtb.walker.walkRequestOrigin_Completed::Inst            0                       # Table walker requests started/completed, data/inst
system.cpu.dtb.walker.walkRequestOrigin_Completed::total            0                       # Table walker requests started/completed, data/inst
system.cpu.dtb.walker.walkRequestOrigin::total            0                       # Table walker requests started/completed, data/inst
system.cpu.dtb.walker.walks                         0                       # Table walker walks requested
system.cpu.dtb.write_accesses                       0                       # DTB write accesses
system.cpu.dtb.write_hits                           0                       # DTB write hits
system.cpu.dtb.write_misses                         0                       # DTB write misses
system.cpu.idle_fraction                     0.000000                       # Percentage of idle cycles
system.cpu.itb.accesses                             0                       # DTB accesses
system.cpu.itb.align_faults                         0                       # Number of TLB faults due to alignment restrictions
system.cpu.itb.domain_faults                        0                       # Number of TLB faults due to domain restrictions
system.cpu.itb.flush_entries                        0                       # Number of entries that have been flushed from TLB
system.cpu.itb.flush_tlb                            0                       # Number of times complete TLB was flushed
system.cpu.itb.flush_tlb_asid                       0                       # Number of times TLB was flushed by ASID
system.cpu.itb.flush_tlb_mva                        0                       # Number of times TLB was flushed by MVA
system.cpu.itb.flush_tlb_mva_asid                   0                       # Number of times TLB was flushed by MVA & ASID
system.cpu.itb.hits                                 0                       # DTB hits
system.cpu.itb.inst_accesses                        0                       # ITB inst accesses
system.cpu.itb.inst_hits                            0                       # ITB inst hits
system.cpu.itb.inst_misses                          0                       # ITB inst misses
system.cpu.itb.misses                               0                       # DTB misses
system.cpu.itb.perms_faults                         0                       # Number of TLB faults due to permissions restrictions
system.cpu.itb.prefetch_faults                      0                       # Number of TLB faults due to prefetch
system.cpu.itb.read_accesses                        0                       # DTB read accesses
system.cpu.itb.read_hits                            0                       # DTB read hits
system.cpu.itb.read_misses                          0                       # DTB read misses
system.cpu.itb.stage2_mmu.stage2_tlb.accesses            0                       # DTB accesses
system.cpu.itb.stage2_mmu.stage2_tlb.align_faults            0                       # Number of TLB faults due to alignment restrictions
system.cpu.itb.stage2_mmu.stage2_tlb.domain_faults            0                       # Number of TLB faults due to domain restrictions
system.cpu.itb.stage2_mmu.stage2_tlb.flush_entries            0                       # Number of entries that have been flushed from TLB
system.cpu.itb.stage2_mmu.stage2_tlb.flush_tlb            0                       # Number of times complete TLB was flushed
system.cpu.itb.stage2_mmu.stage2_tlb.flush_tlb_asid            0                       # Number of times TLB was flushed by ASID
system.cpu.itb.stage2_mmu.stage2_tlb.flush_tlb_mva            0                       # Number of times TLB was flushed by MVA
system.cpu.itb.stage2_mmu.stage2_tlb.flush_tlb_mva_asid            0                       # Number of times TLB was flushed by MVA & ASID
system.cpu.itb.stage2_mmu.stage2_tlb.hits            0                       # DTB hits
system.cpu.itb.stage2_mmu.stage2_tlb.inst_accesses            0                       # ITB inst accesses
system.cpu.itb.stage2_mmu.stage2_tlb.inst_hits            0                       # ITB inst hits
system.cpu.itb.stage2_mmu.stage2_tlb.inst_misses            0                       # ITB inst misses
system.cpu.itb.stage2_mmu.stage2_tlb.misses            0                       # DTB misses
system.cpu.itb.stage2_mmu.stage2_tlb.perms_faults            0                       # Number of TLB faults due to permissions restrictions
system.cpu.itb.stage2_mmu.stage2_tlb.prefetch_faults            0                       # Number of TLB faults due to prefetch
system.cpu.itb.stage2_mmu.stage2_tlb.read_accesses            0                       # DTB read accesses
system.cpu.itb.stage2_mmu.stage2_tlb.read_hits            0                       # DTB read hits
system.cpu.itb.stage2_mmu.stage2_tlb.read_misses            0                       # DTB read misses
system.cpu.itb.stage2_mmu.stage2_tlb.walker.walkRequestOrigin_Requested::Data            0                       # Table walker requests started/completed, data/inst
system.cpu.itb.stage2_mmu.stage2_tlb.walker.walkRequestOrigin_Requested::Inst            0                       # Table walker requests started/completed, data/inst
system.cpu.itb.stage2_mmu.stage2_tlb.walker.walkRequestOrigin_Requested::total            0                       # Table walker requests started/completed, data/inst
system.cpu.itb.stage2_mmu.stage2_tlb.walker.walkRequestOrigin_Completed::Data            0                       # Table walker requests started/completed, data/inst
system.cpu.itb.stage2_mmu.stage2_tlb.walker.walkRequestOrigin_Completed::Inst            0                       # Table walker requests started/completed, data/inst
system.cpu.itb.stage2_mmu.stage2_tlb.walker.walkRequestOrigin_Completed::total            0                       # Table walker requests started/completed, data/inst
system.cpu.itb.stage2_mmu.stage2_tlb.walker.walkRequestOrigin::total            0                       # Table walker requests started/completed, data/inst
system.cpu.itb.stage2_mmu.stage2_tlb.walker.walks            0                       # Table walker walks requested
system.cpu.itb.stage2_mmu.stage2_tlb.write_accesses            0                       # DTB write accesses
system.cpu.itb.stage2_mmu.stage2_tlb.write_hits            0                       # DTB write hits
system.cpu.itb.stage2_mmu.stage2_tlb.write_misses            0                       # DTB write misses
system.cpu.itb.walker.walkRequestOrigin_Requested::Data            0                       # Table walker requests started/completed, data/inst
system.cpu.itb.walker.walkRequestOrigin_Requested::Inst            0                       # Table walker requests started/completed, data/inst
system.cpu.itb.walker.walkRequestOrigin_Requested::total            0                       # Table walker requests started/completed, data/inst
system.cpu.itb.walker.walkRequestOrigin_Completed::Data            0                       # Table walker requests started/completed, data/inst
system.cpu.itb.walker.walkRequestOrigin_Completed::Inst            0                       # Table walker requests started/completed, data/inst
system.cpu.itb.walker.walkRequestOrigin_Completed::total            0                       # Table walker requests started/completed, data/inst
system.cpu.itb.walker.walkRequestOrigin::total            0                       # Table walker requests started/completed, data/inst
system.cpu.itb.walker.walks                         0                       # Table walker walks requested
system.cpu.itb.write_accesses                       0                       # DTB write accesses
system.cpu.itb.write_hits                           0                       # DTB write hits
system.cpu.itb.write_misses                         0                       # DTB write misses
system.cpu.not_idle_fraction                 1.000000                       # Percentage of non-idle cycles
system.cpu.numCycles                        145038048                       # number of cpu cycles simulated
system.cpu.numWorkItemsCompleted                    0                       # number of work items this cpu completed
system.cpu.numWorkItemsStarted                      0                       # number of work items this cpu started
system.cpu.num_busy_cycles               145038047.998000                       # Number of busy cycles
system.cpu.num_cc_register_reads            217818420                       # number of times the CC registers were read
system.cpu.num_cc_register_writes            10967891                       # number of times the CC registers were written
system.cpu.num_conditional_control_insts      4111855                       # number of instructions that are conditional controls
system.cpu.num_fp_alu_accesses                      0                       # Number of float alu accesses
system.cpu.num_fp_insts                             0                       # number of float instructions
system.cpu.num_fp_register_reads                    0                       # number of times the floating registers were read
system.cpu.num_fp_register_writes                   0                       # number of times the floating registers were written
system.cpu.num_func_calls                     2739248                       # number of times a function call or return occured
system.cpu.num_idle_cycles                   0.002000                       # Number of idle cycles
system.cpu.num_int_alu_accesses              52055942                       # Number of integer alu accesses
system.cpu.num_int_insts                     52055942                       # number of integer instructions
system.cpu.num_int_register_reads            93152843                       # number of times the integer registers were read
system.cpu.num_int_register_writes           39722381                       # number of times the integer registers were written
system.cpu.num_load_insts                    16437828                       # Number of load instructions
system.cpu.num_mem_refs                      27397802                       # number of memory refs
system.cpu.num_store_insts                   10959974                       # Number of store instructions
system.cpu.num_vec_alu_accesses                     0                       # Number of vector alu accesses
system.cpu.num_vec_insts                            0                       # number of vector instructions
system.cpu.num_vec_register_reads                  16                       # number of times the vector registers were read
system.cpu.num_vec_register_writes                  0                       # number of times the vector registers were written
system.cpu.op_class::No_OpClass                     0      0.00%      0.00% # Class of executed instruction
system.cpu.op_class::IntAlu                  28770567     51.22%     51.22% # Class of executed instruction
system.cpu.op_class::IntMult                       12      0.00%     51.22% # Class of executed instruction
system.cpu.op_class::IntDiv                         0      0.00%     51.22% # Class of executed instruction
system.cpu.op_class::FloatAdd                       0      0.00%     51.22% # Class of executed instruction
system.cpu.op_class::FloatCmp                       0      0.00%     51.22% # Class of executed instruction
system.cpu.op_class::FloatCvt                       0      0.00%     51.22% # Class of executed instruction
system.cpu.op_class::FloatMult                      0      0.00%     51.22% # Class of executed instruction
system.cpu.op_class::FloatMultAcc                   0      0.00%     51.22% # Class of executed instruction
system.cpu.op_class::FloatDiv                       0      0.00%     51.22% # Class of executed instruction
system.cpu.op_class::FloatMisc                      0      0.00%     51.22% # Class of executed instruction
system.cpu.op_class::FloatSqrt                      0      0.00%     51.22% # Class of executed instruction
system.cpu.op_class::SimdAdd                        0      0.00%     51.22% # Class of executed instruction
system.cpu.op_class::SimdAddAcc                     0      0.00%     51.22% # Class of executed instruction
system.cpu.op_class::SimdAlu                        0      0.00%     51.22% # Class of executed instruction
system.cpu.op_class::SimdCmp                        0      0.00%     51.22% # Class of executed instruction
system.cpu.op_class::SimdCvt                        0      0.00%     51.22% # Class of executed instruction
system.cpu.op_class::SimdMisc                       0      0.00%     51.22% # Class of executed instruction
system.cpu.op_class::SimdMult                       0      0.00%     51.22% # Class of executed instruction
system.cpu.op_class::SimdMultAcc                    0      0.00%     51.22% # Class of executed instruction
system.cpu.op_class::SimdShift                      0      0.00%     51.22% # Class of executed instruction
system.cpu.op_class::SimdShiftAcc                   0      0.00%     51.22% # Class of executed instruction
system.cpu.op_class::SimdDiv                        0      0.00%     51.22% # Class of executed instruction
system.cpu.op_class::SimdSqrt                       0      0.00%     51.22% # Class of executed instruction
system.cpu.op_class::SimdFloatAdd                   0      0.00%     51.22% # Class of executed instruction
system.cpu.op_class::SimdFloatAlu                   0      0.00%     51.22% # Class of executed instruction
system.cpu.op_class::SimdFloatCmp                   0      0.00%     51.22% # Class of executed instruction
system.cpu.op_class::SimdFloatCvt                   0      0.00%     51.22% # Class of executed instruction
system.cpu.op_class::SimdFloatDiv                   0      0.00%     51.22% # Class of executed instruction
system.cpu.op_class::SimdFloatMisc                  0      0.00%     51.22% # Class of executed instruction
system.cpu.op_class::SimdFloatMult                  0      0.00%     51.22% # Class of executed instruction
system.cpu.op_class::SimdFloatMultAcc               0      0.00%     51.22% # Class of executed instruction
system.cpu.op_class::SimdFloatSqrt                  0      0.00%     51.22% # Class of executed instruction
system.cpu.op_class::SimdReduceAdd                  0      0.00%     51.22% # Class of executed instruction
system.cpu.op_class::SimdReduceAlu                  0      0.00%     51.22% # Class of executed instruction
system.cpu.op_class::SimdReduceCmp                  0      0.00%     51.22% # Class of executed instruction
system.cpu.op_class::SimdFloatReduceAdd             0      0.00%     51.22% # Class of executed instruction
system.cpu.op_class::SimdFloatReduceCmp             0      0.00%     51.22% # Class of executed instruction
system.cpu.op_class::SimdAes                        0      0.00%     51.22% # Class of executed instruction
system.cpu.op_class::SimdAesMix                     0      0.00%     51.22% # Class of executed instruction
system.cpu.op_class::SimdSha1Hash                   0      0.00%     51.22% # Class of executed instruction
system.cpu.op_class::SimdSha1Hash2                  0      0.00%     51.22% # Class of executed instruction
system.cpu.op_class::SimdSha256Hash                 0      0.00%     51.22% # Class of executed instruction
system.cpu.op_class::SimdSha256Hash2                0      0.00%     51.22% # Class of executed instruction
system.cpu.op_class::SimdShaSigma2                  0      0.00%     51.22% # Class of executed instruction
system.cpu.op_class::SimdShaSigma3                  0      0.00%     51.22% # Class of executed instruction
system.cpu.op_class::SimdPredAlu                    0      0.00%     51.22% # Class of executed instruction
system.cpu.op_class::MemRead                 16437828     29.27%     80.49% # Class of executed instruction
system.cpu.op_class::MemWrite                10959974     19.51%    100.00% # Class of executed instruction
system.cpu.op_class::FloatMemRead                   0      0.00%    100.00% # Class of executed instruction
system.cpu.op_class::FloatMemWrite                  0      0.00%    100.00% # Class of executed instruction
system.cpu.op_class::IprAccess                      0      0.00%    100.00% # Class of executed instruction
system.cpu.op_class::InstPrefetch                   0      0.00%    100.00% # Class of executed instruction
system.cpu.op_class::total                   56168381                       # Class of executed instruction
system.cpu.workload.numSyscalls                   183                       # Number of system calls
system.membus.snoop_filter.hit_multi_requests          542                       # Number of requests hitting in the snoop filter with multiple (>1) holders of the requested data.
system.membus.snoop_filter.hit_multi_snoops            0                       # Number of snoops hitting in the snoop filter with multiple (>1) holders of the requested data.
system.membus.snoop_filter.hit_single_requests        48053                       # Number of requests hitting in the snoop filter with a single holder of the requested data.
system.membus.snoop_filter.hit_single_snoops            0                       # Number of snoops hitting in the snoop filter with a single holder of the requested data.
system.membus.snoop_filter.tot_requests         96518                       # Total number of requests made to the snoop filter.
system.membus.snoop_filter.tot_snoops               0                       # Total number of snoops made to the snoop filter.
system.membus.pwrStateResidencyTicks::UNDEFINED  72519024000                       # Cumulative time (in ticks) in various power states
system.membus.trans_dist::ReadResp              48220                       # Transaction distribution
system.membus.trans_dist::WritebackDirty         2426                       # Transaction distribution
system.membus.trans_dist::WritebackClean          147                       # Transaction distribution
system.membus.trans_dist::CleanEvict            45467                       # Transaction distribution
system.membus.trans_dist::ReadExReq               258                       # Transaction distribution
system.membus.trans_dist::ReadExResp              258                       # Transaction distribution
system.membus.trans_dist::ReadCleanReq            521                       # Transaction distribution
system.membus.trans_dist::ReadSharedReq         47699                       # Transaction distribution
system.membus.pkt_count_system.cpu.icache.mem_side::system.mem_ctrls.port         1189                       # Packet count per connected master and slave (bytes)
system.membus.pkt_count_system.cpu.dcache.mem_side::system.mem_ctrls.port       143807                       # Packet count per connected master and slave (bytes)
system.membus.pkt_count::total                 144996                       # Packet count per connected master and slave (bytes)
system.membus.pkt_size_system.cpu.icache.mem_side::system.mem_ctrls.port        42752                       # Cumulative packet size per connected master and slave (bytes)
system.membus.pkt_size_system.cpu.dcache.mem_side::system.mem_ctrls.port      3224512                       # Cumulative packet size per connected master and slave (bytes)
system.membus.pkt_size::total                 3267264                       # Cumulative packet size per connected master and slave (bytes)
system.membus.snoops                                0                       # Total snoops (count)
system.membus.snoopTraffic                          0                       # Total snoop traffic (bytes)
system.membus.snoop_fanout::samples             48478                       # Request fanout histogram
system.membus.snoop_fanout::mean             0.011448                       # Request fanout histogram
system.membus.snoop_fanout::stdev            0.106384                       # Request fanout histogram
system.membus.snoop_fanout::underflows              0      0.00%      0.00% # Request fanout histogram
system.membus.snoop_fanout::0                   47923     98.86%     98.86% # Request fanout histogram
system.membus.snoop_fanout::1                     555      1.14%    100.00% # Request fanout histogram
system.membus.snoop_fanout::2                       0      0.00%    100.00% # Request fanout histogram
system.membus.snoop_fanout::overflows               0      0.00%    100.00% # Request fanout histogram
system.membus.snoop_fanout::min_value               0                       # Request fanout histogram
system.membus.snoop_fanout::max_value               1                       # Request fanout histogram
system.membus.snoop_fanout::total               48478                       # Request fanout histogram
system.membus.reqLayer0.occupancy           106817000                       # Layer occupancy (ticks)
system.membus.reqLayer0.utilization               0.1                       # Layer utilization (%)
system.membus.respLayer1.occupancy            2765250                       # Layer occupancy (ticks)
system.membus.respLayer1.utilization              0.0                       # Layer utilization (%)
system.membus.respLayer2.occupancy          253765500                       # Layer occupancy (ticks)
system.membus.respLayer2.utilization              0.3                       # Layer utilization (%)
system.voltage_domain.voltage                       1                       # Voltage in Volts
system.clk_domain.clock                          1000                       # Clock period in ticks
system.cpu_voltage_domain.voltage                   1                       # Voltage in Volts
system.mem_ctrls.pwrStateResidencyTicks::UNDEFINED  72519024000                       # Cumulative time (in ticks) in various power states
system.mem_ctrls.bytes_read::.cpu.inst          33344                       # Number of bytes read from this memory
system.mem_ctrls.bytes_read::.cpu.data        3069248                       # Number of bytes read from this memory
system.mem_ctrls.bytes_read::total            3102592                       # Number of bytes read from this memory
system.mem_ctrls.bytes_inst_read::.cpu.inst        33344                       # Number of instructions bytes read from this memory
system.mem_ctrls.bytes_inst_read::total         33344                       # Number of instructions bytes read from this memory
system.mem_ctrls.bytes_written::.writebacks       155264                       # Number of bytes written to this memory
system.mem_ctrls.bytes_written::total          155264                       # Number of bytes written to this memory
system.mem_ctrls.num_reads::.cpu.inst             521                       # Number of read requests responded to by this memory
system.mem_ctrls.num_reads::.cpu.data           47957                       # Number of read requests responded to by this memory
system.mem_ctrls.num_reads::total               48478                       # Number of read requests responded to by this memory
system.mem_ctrls.num_writes::.writebacks         2426                       # Number of write requests responded to by this memory
system.mem_ctrls.num_writes::total               2426                       # Number of write requests responded to by this memory
system.mem_ctrls.bw_read::.cpu.inst            459797                       # Total read bandwidth from this memory (bytes/s)
system.mem_ctrls.bw_read::.cpu.data          42323350                       # Total read bandwidth from this memory (bytes/s)
system.mem_ctrls.bw_read::total              42783146                       # Total read bandwidth from this memory (bytes/s)
system.mem_ctrls.bw_inst_read::.cpu.inst       459797                       # Instruction read bandwidth from this memory (bytes/s)
system.mem_ctrls.bw_inst_read::total           459797                       # Instruction read bandwidth from this memory (bytes/s)
system.mem_ctrls.bw_write::.writebacks        2141011                       # Write bandwidth from this memory (bytes/s)
system.mem_ctrls.bw_write::total              2141011                       # Write bandwidth from this memory (bytes/s)
system.mem_ctrls.bw_total::.writebacks        2141011                       # Total bandwidth to/from this memory (bytes/s)
system.mem_ctrls.bw_total::.cpu.inst           459797                       # Total bandwidth to/from this memory (bytes/s)
system.mem_ctrls.bw_total::.cpu.data         42323350                       # Total bandwidth to/from this memory (bytes/s)
system.mem_ctrls.bw_total::total             44924157                       # Total bandwidth to/from this memory (bytes/s)
system.mem_ctrls.avgPriority_.writebacks::samples       252.00                       # Average QoS priority value for accepted requests
system.mem_ctrls.avgPriority_.cpu.inst::samples       510.00                       # Average QoS priority value for accepted requests
system.mem_ctrls.avgPriority_.cpu.data::samples     42957.00                       # Average QoS priority value for accepted requests
system.mem_ctrls.priorityMinLatency      0.000000018750                       # per QoS priority minimum request to response latency (s)
system.mem_ctrls.priorityMaxLatency      0.144930374750                       # per QoS priority maximum request to response latency (s)
system.mem_ctrls.numReadWriteTurnArounds           14                       # Number of turnarounds from READ to WRITE
system.mem_ctrls.numWriteReadTurnArounds           14                       # Number of turnarounds from WRITE to READ
system.mem_ctrls.numStayReadState              108117                       # Number of times bus staying in READ state
system.mem_ctrls.numStayWriteState                214                       # Number of times bus staying in WRITE state
system.mem_ctrls.readReqs                       48478                       # Number of read requests accepted
system.mem_ctrls.writeReqs                       2569                       # Number of write requests accepted
system.mem_ctrls.readBursts                     48478                       # Number of DRAM read bursts, including those serviced by the write queue
system.mem_ctrls.writeBursts                     2569                       # Number of DRAM write bursts, including those merged in the write queue
system.mem_ctrls.servicedByWrQ                   5011                       # Number of DRAM read bursts serviced by the write queue
system.mem_ctrls.mergedWrBursts                  2317                       # Number of DRAM write bursts merged with an existing one
system.mem_ctrls.neitherReadNorWriteReqs            0                       # Number of requests that are neither read nor write
system.mem_ctrls.perBankRdBursts::0              2798                       # Per bank write bursts
system.mem_ctrls.perBankRdBursts::1                 8                       # Per bank write bursts
system.mem_ctrls.perBankRdBursts::2               201                       # Per bank write bursts
system.mem_ctrls.perBankRdBursts::3                84                       # Per bank write bursts
system.mem_ctrls.perBankRdBursts::4             10049                       # Per bank write bursts
system.mem_ctrls.perBankRdBursts::5               254                       # Per bank write bursts
system.mem_ctrls.perBankRdBursts::6               648                       # Per bank write bursts
system.mem_ctrls.perBankRdBursts::7             26517                       # Per bank write bursts
system.mem_ctrls.perBankRdBursts::8              2522                       # Per bank write bursts
system.mem_ctrls.perBankRdBursts::9                58                       # Per bank write bursts
system.mem_ctrls.perBankRdBursts::10               18                       # Per bank write bursts
system.mem_ctrls.perBankRdBursts::11               32                       # Per bank write bursts
system.mem_ctrls.perBankRdBursts::12              195                       # Per bank write bursts
system.mem_ctrls.perBankRdBursts::13               38                       # Per bank write bursts
system.mem_ctrls.perBankRdBursts::14               36                       # Per bank write bursts
system.mem_ctrls.perBankRdBursts::15                9                       # Per bank write bursts
system.mem_ctrls.perBankWrBursts::0                17                       # Per bank write bursts
system.mem_ctrls.perBankWrBursts::1                 4                       # Per bank write bursts
system.mem_ctrls.perBankWrBursts::2                20                       # Per bank write bursts
system.mem_ctrls.perBankWrBursts::3                16                       # Per bank write bursts
system.mem_ctrls.perBankWrBursts::4                54                       # Per bank write bursts
system.mem_ctrls.perBankWrBursts::5                30                       # Per bank write bursts
system.mem_ctrls.perBankWrBursts::6                29                       # Per bank write bursts
system.mem_ctrls.perBankWrBursts::7                13                       # Per bank write bursts
system.mem_ctrls.perBankWrBursts::8                 6                       # Per bank write bursts
system.mem_ctrls.perBankWrBursts::9                 3                       # Per bank write bursts
system.mem_ctrls.perBankWrBursts::10                1                       # Per bank write bursts
system.mem_ctrls.perBankWrBursts::11                7                       # Per bank write bursts
system.mem_ctrls.perBankWrBursts::12                1                       # Per bank write bursts
system.mem_ctrls.perBankWrBursts::13               19                       # Per bank write bursts
system.mem_ctrls.perBankWrBursts::14                8                       # Per bank write bursts
system.mem_ctrls.perBankWrBursts::15                0                       # Per bank write bursts
system.mem_ctrls.avgRdQLen                       1.00                       # Average read queue length when enqueuing
system.mem_ctrls.avgWrQLen                      17.03                       # Average write queue length when enqueuing
system.mem_ctrls.totQLat                    367411000                       # Total ticks spent queuing
system.mem_ctrls.totBusLat                  217335000                       # Total ticks spent in databus transfers
system.mem_ctrls.totMemAccLat              1182417250                       # Total ticks spent from burst creation until serviced by the DRAM
system.mem_ctrls.avgQLat                      8452.64                       # Average queueing delay per DRAM burst
system.mem_ctrls.avgBusLat                    5000.00                       # Average bus latency per DRAM burst
system.mem_ctrls.avgMemAccLat                27202.64                       # Average memory access latency per DRAM burst
system.mem_ctrls.numRdRetry                         0                       # Number of times read queue was full causing retry
system.mem_ctrls.numWrRetry                         0                       # Number of times write queue was full causing retry
system.mem_ctrls.readRowHits                    29754                       # Number of row buffer hits during reads
system.mem_ctrls.writeRowHits                     191                       # Number of row buffer hits during writes
system.mem_ctrls.readRowHitRate                 68.45                       # Row buffer hit rate for reads
system.mem_ctrls.writeRowHitRate                75.79                       # Row buffer hit rate for writes
system.mem_ctrls.readPktSize::0                     0                       # Read request sizes (log2)
system.mem_ctrls.readPktSize::1                     0                       # Read request sizes (log2)
system.mem_ctrls.readPktSize::2                     0                       # Read request sizes (log2)
system.mem_ctrls.readPktSize::3                     0                       # Read request sizes (log2)
system.mem_ctrls.readPktSize::4                     0                       # Read request sizes (log2)
system.mem_ctrls.readPktSize::5                     0                       # Read request sizes (log2)
system.mem_ctrls.readPktSize::6                 48478                       # Read request sizes (log2)
system.mem_ctrls.writePktSize::0                    0                       # Write request sizes (log2)
system.mem_ctrls.writePktSize::1                    0                       # Write request sizes (log2)
system.mem_ctrls.writePktSize::2                    0                       # Write request sizes (log2)
system.mem_ctrls.writePktSize::3                    0                       # Write request sizes (log2)
system.mem_ctrls.writePktSize::4                    0                       # Write request sizes (log2)
system.mem_ctrls.writePktSize::5                    0                       # Write request sizes (log2)
system.mem_ctrls.writePktSize::6                 2569                       # Write request sizes (log2)
system.mem_ctrls.rdQLenPdf::0                   43467                       # What read queue length does an incoming req see
system.mem_ctrls.rdQLenPdf::1                       0                       # What read queue length does an incoming req see
system.mem_ctrls.rdQLenPdf::2                       0                       # What read queue length does an incoming req see
system.mem_ctrls.rdQLenPdf::3                       0                       # What read queue length does an incoming req see
system.mem_ctrls.rdQLenPdf::4                       0                       # What read queue length does an incoming req see
system.mem_ctrls.rdQLenPdf::5                       0                       # What read queue length does an incoming req see
system.mem_ctrls.rdQLenPdf::6                       0                       # What read queue length does an incoming req see
system.mem_ctrls.rdQLenPdf::7                       0                       # What read queue length does an incoming req see
system.mem_ctrls.rdQLenPdf::8                       0                       # What read queue length does an incoming req see
system.mem_ctrls.rdQLenPdf::9                       0                       # What read queue length does an incoming req see
system.mem_ctrls.rdQLenPdf::10                      0                       # What read queue length does an incoming req see
system.mem_ctrls.rdQLenPdf::11                      0                       # What read queue length does an incoming req see
system.mem_ctrls.rdQLenPdf::12                      0                       # What read queue length does an incoming req see
system.mem_ctrls.rdQLenPdf::13                      0                       # What read queue length does an incoming req see
system.mem_ctrls.rdQLenPdf::14                      0                       # What read queue length does an incoming req see
system.mem_ctrls.rdQLenPdf::15                      0                       # What read queue length does an incoming req see
system.mem_ctrls.rdQLenPdf::16                      0                       # What read queue length does an incoming req see
system.mem_ctrls.rdQLenPdf::17                      0                       # What read queue length does an incoming req see
system.mem_ctrls.rdQLenPdf::18                      0                       # What read queue length does an incoming req see
system.mem_ctrls.rdQLenPdf::19                      0                       # What read queue length does an incoming req see
system.mem_ctrls.rdQLenPdf::20                      0                       # What read queue length does an incoming req see
system.mem_ctrls.rdQLenPdf::21                      0                       # What read queue length does an incoming req see
system.mem_ctrls.rdQLenPdf::22                      0                       # What read queue length does an incoming req see
system.mem_ctrls.rdQLenPdf::23                      0                       # What read queue length does an incoming req see
system.mem_ctrls.rdQLenPdf::24                      0                       # What read queue length does an incoming req see
system.mem_ctrls.rdQLenPdf::25                      0                       # What read queue length does an incoming req see
system.mem_ctrls.rdQLenPdf::26                      0                       # What read queue length does an incoming req see
system.mem_ctrls.rdQLenPdf::27                      0                       # What read queue length does an incoming req see
system.mem_ctrls.rdQLenPdf::28                      0                       # What read queue length does an incoming req see
system.mem_ctrls.rdQLenPdf::29                      0                       # What read queue length does an incoming req see
system.mem_ctrls.rdQLenPdf::30                      0                       # What read queue length does an incoming req see
system.mem_ctrls.rdQLenPdf::31                      0                       # What read queue length does an incoming req see
system.mem_ctrls.wrQLenPdf::0                       1                       # What write queue length does an incoming req see
system.mem_ctrls.wrQLenPdf::1                       1                       # What write queue length does an incoming req see
system.mem_ctrls.wrQLenPdf::2                       1                       # What write queue length does an incoming req see
system.mem_ctrls.wrQLenPdf::3                       1                       # What write queue length does an incoming req see
system.mem_ctrls.wrQLenPdf::4                       1                       # What write queue length does an incoming req see
system.mem_ctrls.wrQLenPdf::5                       1                       # What write queue length does an incoming req see
system.mem_ctrls.wrQLenPdf::6                       1                       # What write queue length does an incoming req see
system.mem_ctrls.wrQLenPdf::7                       1                       # What write queue length does an incoming req see
system.mem_ctrls.wrQLenPdf::8                       1                       # What write queue length does an incoming req see
system.mem_ctrls.wrQLenPdf::9                       1                       # What write queue length does an incoming req see
system.mem_ctrls.wrQLenPdf::10                      1                       # What write queue length does an incoming req see
system.mem_ctrls.wrQLenPdf::11                      1                       # What write queue length does an incoming req see
system.mem_ctrls.wrQLenPdf::12                      1                       # What write queue length does an incoming req see
system.mem_ctrls.wrQLenPdf::13                      1                       # What write queue length does an incoming req see
system.mem_ctrls.wrQLenPdf::14                      1                       # What write queue length does an incoming req see
system.mem_ctrls.wrQLenPdf::15                      3                       # What write queue length does an incoming req see
system.mem_ctrls.wrQLenPdf::16                      3                       # What write queue length does an incoming req see
system.mem_ctrls.wrQLenPdf::17                     15                       # What write queue length does an incoming req see
system.mem_ctrls.wrQLenPdf::18                     15                       # What write queue length does an incoming req see
system.mem_ctrls.wrQLenPdf::19                     15                       # What write queue length does an incoming req see
system.mem_ctrls.wrQLenPdf::20                     15                       # What write queue length does an incoming req see
system.mem_ctrls.wrQLenPdf::21                     15                       # What write queue length does an incoming req see
system.mem_ctrls.wrQLenPdf::22                     15                       # What write queue length does an incoming req see
system.mem_ctrls.wrQLenPdf::23                     15                       # What write queue length does an incoming req see
system.mem_ctrls.wrQLenPdf::24                     14                       # What write queue length does an incoming req see
system.mem_ctrls.wrQLenPdf::25                     14                       # What write queue length does an incoming req see
system.mem_ctrls.wrQLenPdf::26                     14                       # What write queue length does an incoming req see
system.mem_ctrls.wrQLenPdf::27                     14                       # What write queue length does an incoming req see
system.mem_ctrls.wrQLenPdf::28                     14                       # What write queue length does an incoming req see
system.mem_ctrls.wrQLenPdf::29                     14                       # What write queue length does an incoming req see
system.mem_ctrls.wrQLenPdf::30                     14                       # What write queue length does an incoming req see
system.mem_ctrls.wrQLenPdf::31                     14                       # What write queue length does an incoming req see
system.mem_ctrls.wrQLenPdf::32                     14                       # What write queue length does an incoming req see
system.mem_ctrls.wrQLenPdf::33                      0                       # What write queue length does an incoming req see
system.mem_ctrls.wrQLenPdf::34                      0                       # What write queue length does an incoming req see
system.mem_ctrls.wrQLenPdf::35                      0                       # What write queue length does an incoming req see
system.mem_ctrls.wrQLenPdf::36                      0                       # What write queue length does an incoming req see
system.mem_ctrls.wrQLenPdf::37                      0                       # What write queue length does an incoming req see
system.mem_ctrls.wrQLenPdf::38                      0                       # What write queue length does an incoming req see
system.mem_ctrls.wrQLenPdf::39                      0                       # What write queue length does an incoming req see
system.mem_ctrls.wrQLenPdf::40                      0                       # What write queue length does an incoming req see
system.mem_ctrls.wrQLenPdf::41                      0                       # What write queue length does an incoming req see
system.mem_ctrls.wrQLenPdf::42                      0                       # What write queue length does an incoming req see
system.mem_ctrls.wrQLenPdf::43                      0                       # What write queue length does an incoming req see
system.mem_ctrls.wrQLenPdf::44                      0                       # What write queue length does an incoming req see
system.mem_ctrls.wrQLenPdf::45                      0                       # What write queue length does an incoming req see
system.mem_ctrls.wrQLenPdf::46                      0                       # What write queue length does an incoming req see
system.mem_ctrls.wrQLenPdf::47                      0                       # What write queue length does an incoming req see
system.mem_ctrls.wrQLenPdf::48                      0                       # What write queue length does an incoming req see
system.mem_ctrls.wrQLenPdf::49                      0                       # What write queue length does an incoming req see
system.mem_ctrls.wrQLenPdf::50                      0                       # What write queue length does an incoming req see
system.mem_ctrls.wrQLenPdf::51                      0                       # What write queue length does an incoming req see
system.mem_ctrls.wrQLenPdf::52                      0                       # What write queue length does an incoming req see
system.mem_ctrls.wrQLenPdf::53                      0                       # What write queue length does an incoming req see
system.mem_ctrls.wrQLenPdf::54                      0                       # What write queue length does an incoming req see
system.mem_ctrls.wrQLenPdf::55                      0                       # What write queue length does an incoming req see
system.mem_ctrls.wrQLenPdf::56                      0                       # What write queue length does an incoming req see
system.mem_ctrls.wrQLenPdf::57                      0                       # What write queue length does an incoming req see
system.mem_ctrls.wrQLenPdf::58                      0                       # What write queue length does an incoming req see
system.mem_ctrls.wrQLenPdf::59                      0                       # What write queue length does an incoming req see
system.mem_ctrls.wrQLenPdf::60                      0                       # What write queue length does an incoming req see
system.mem_ctrls.wrQLenPdf::61                      0                       # What write queue length does an incoming req see
system.mem_ctrls.wrQLenPdf::62                      0                       # What write queue length does an incoming req see
system.mem_ctrls.wrQLenPdf::63                      0                       # What write queue length does an incoming req see
system.mem_ctrls.bytesPerActivate::samples        13742                       # Bytes accessed per row activation
system.mem_ctrls.bytesPerActivate::mean    203.321787                       # Bytes accessed per row activation
system.mem_ctrls.bytesPerActivate::gmean   172.096472                       # Bytes accessed per row activation
system.mem_ctrls.bytesPerActivate::stdev   132.412637                       # Bytes accessed per row activation
system.mem_ctrls.bytesPerActivate::0-127         1492     10.86%     10.86% # Bytes accessed per row activation
system.mem_ctrls.bytesPerActivate::128-255         8643     62.89%     73.75% # Bytes accessed per row activation
system.mem_ctrls.bytesPerActivate::256-383         1856     13.51%     87.26% # Bytes accessed per row activation
system.mem_ctrls.bytesPerActivate::384-511         1032      7.51%     94.77% # Bytes accessed per row activation
system.mem_ctrls.bytesPerActivate::512-639          480      3.49%     98.26% # Bytes accessed per row activation
system.mem_ctrls.bytesPerActivate::640-767          156      1.14%     99.40% # Bytes accessed per row activation
system.mem_ctrls.bytesPerActivate::768-895           53      0.39%     99.78% # Bytes accessed per row activation
system.mem_ctrls.bytesPerActivate::896-1023           15      0.11%     99.89% # Bytes accessed per row activation
system.mem_ctrls.bytesPerActivate::1024-1151           15      0.11%    100.00% # Bytes accessed per row activation
system.mem_ctrls.bytesPerActivate::total        13742                       # Bytes accessed per row activation
system.mem_ctrls.rdPerTurnAround::samples           14                       # Reads before turning the bus around for writes
system.mem_ctrls.rdPerTurnAround::mean           3104                       # Reads before turning the bus around for writes
system.mem_ctrls.rdPerTurnAround::gmean     83.254631                       # Reads before turning the bus around for writes
system.mem_ctrls.rdPerTurnAround::stdev  11369.652819                       # Reads before turning the bus around for writes
system.mem_ctrls.rdPerTurnAround::0-2047           13     92.86%     92.86% # Reads before turning the bus around for writes
system.mem_ctrls.rdPerTurnAround::40960-43007            1      7.14%    100.00% # Reads before turning the bus around for writes
system.mem_ctrls.rdPerTurnAround::total            14                       # Reads before turning the bus around for writes
system.mem_ctrls.wrPerTurnAround::samples           14                       # Writes before turning the bus around for reads
system.mem_ctrls.wrPerTurnAround::mean      16.285714                       # Writes before turning the bus around for reads
system.mem_ctrls.wrPerTurnAround::gmean     16.271496                       # Writes before turning the bus around for reads
system.mem_ctrls.wrPerTurnAround::stdev      0.726273                       # Writes before turning the bus around for reads
system.mem_ctrls.wrPerTurnAround::16               12     85.71%     85.71% # Writes before turning the bus around for reads
system.mem_ctrls.wrPerTurnAround::18                2     14.29%    100.00% # Writes before turning the bus around for reads
system.mem_ctrls.wrPerTurnAround::total            14                       # Writes before turning the bus around for reads
system.mem_ctrls.bytesReadDRAM                2781888                       # Total number of bytes read from DRAM
system.mem_ctrls.bytesReadWrQ                  320704                       # Total number of bytes read from write queue
system.mem_ctrls.bytesWritten                   14592                       # Total number of bytes written to DRAM
system.mem_ctrls.bytesReadSys                 3102592                       # Total read bytes from the system interface side
system.mem_ctrls.bytesWrittenSys               164416                       # Total written bytes from the system interface side
system.mem_ctrls.avgRdBW                        38.36                       # Average DRAM read bandwidth in MiByte/s
system.mem_ctrls.avgWrBW                         0.20                       # Average achieved write bandwidth in MiByte/s
system.mem_ctrls.avgRdBWSys                     42.78                       # Average system read bandwidth in MiByte/s
system.mem_ctrls.avgWrBWSys                      2.27                       # Average system write bandwidth in MiByte/s
system.mem_ctrls.peakBW                      12800.00                       # Theoretical peak bandwidth in MiByte/s
system.mem_ctrls.busUtil                         0.30                       # Data bus utilization in percentage
system.mem_ctrls.busUtilRead                     0.30                       # Data bus utilization in percentage for reads
system.mem_ctrls.busUtilWrite                    0.00                       # Data bus utilization in percentage for writes
system.mem_ctrls.totGap                   72519016000                       # Total gap between requests
system.mem_ctrls.avgGap                    1420632.28                       # Average gap between requests
system.mem_ctrls.masterReadBytes::.cpu.inst        32640                       # Per-master bytes read from memory
system.mem_ctrls.masterReadBytes::.cpu.data      2749248                       # Per-master bytes read from memory
system.mem_ctrls.masterWriteBytes::.writebacks        14592                       # Per-master bytes write to memory
system.mem_ctrls.masterReadRate::.cpu.inst 450088.793252374686                       # Per-master bytes read from memory rate (Bytes/sec)
system.mem_ctrls.masterReadRate::.cpu.data 37910714.297533839941                       # Per-master bytes read from memory rate (Bytes/sec)
system.mem_ctrls.masterWriteRate::.writebacks 201216.166395179287                       # Per-master bytes write to memory rate (Bytes/sec)
system.mem_ctrls.masterReadAccesses::.cpu.inst          521                       # Per-master read serviced memory accesses
system.mem_ctrls.masterReadAccesses::.cpu.data        47957                       # Per-master read serviced memory accesses
system.mem_ctrls.masterWriteAccesses::.writebacks         2569                       # Per-master write serviced memory accesses
system.mem_ctrls.masterReadTotalLat::.cpu.inst     13088750                       # Per-master read total memory access latency
system.mem_ctrls.masterReadTotalLat::.cpu.data   1169328500                       # Per-master read total memory access latency
system.mem_ctrls.masterWriteTotalLat::.writebacks 1234442924500                       # Per-master write total memory access latency
system.mem_ctrls.masterReadAvgLat::.cpu.inst     25122.36                       # Per-master read average memory access latency
system.mem_ctrls.masterReadAvgLat::.cpu.data     24382.85                       # Per-master read average memory access latency
system.mem_ctrls.masterWriteAvgLat::.writebacks 480514956.99                       # Per-master write average memory access latency
system.mem_ctrls.pageHitRate                    68.49                       # Row buffer hit rate, read and write combined
system.mem_ctrls.rank1.actEnergy              6583080                       # Energy for activate commands per rank (pJ)
system.mem_ctrls.rank1.preEnergy              3491400                       # Energy for precharge commands per rank (pJ)
system.mem_ctrls.rank1.readEnergy            20763120                       # Energy for read commands per rank (pJ)
system.mem_ctrls.rank1.writeEnergy             234900                       # Energy for write commands per rank (pJ)
system.mem_ctrls.rank1.refreshEnergy     5724142320.000001                       # Energy for refresh commands per rank (pJ)
system.mem_ctrls.rank1.actBackEnergy       3155660220                       # Energy for active background per rank (pJ)
system.mem_ctrls.rank1.preBackEnergy      25189907520                       # Energy for precharge background per rank (pJ)
system.mem_ctrls.rank1.actPowerDownEnergy            0                       # Energy for active power-down per rank (pJ)
system.mem_ctrls.rank1.prePowerDownEnergy            0                       # Energy for precharge power-down per rank (pJ)
system.mem_ctrls.rank1.selfRefreshEnergy            0                       # Energy for self refresh per rank (pJ)
system.mem_ctrls.rank1.totalEnergy        34100782560                       # Total energy per rank (pJ)
system.mem_ctrls.rank1.averagePower        470.232233                       # Core power per rank (mW)
system.mem_ctrls.rank1.totalIdleTime                0                       # Total Idle time Per DRAM Rank
system.mem_ctrls.rank1.memoryStateTime::IDLE  65459068250                       # Time in different power states
system.mem_ctrls.rank1.memoryStateTime::REF   2421380000                       # Time in different power states
system.mem_ctrls.rank1.memoryStateTime::SREF            0                       # Time in different power states
system.mem_ctrls.rank1.memoryStateTime::PRE_PDN            0                       # Time in different power states
system.mem_ctrls.rank1.memoryStateTime::ACT   4638575750                       # Time in different power states
system.mem_ctrls.rank1.memoryStateTime::ACT_PDN            0                       # Time in different power states
system.mem_ctrls.rank0.actEnergy             91591920                       # Energy for activate commands per rank (pJ)
system.mem_ctrls.rank0.preEnergy             48659490                       # Energy for precharge commands per rank (pJ)
system.mem_ctrls.rank0.readEnergy           289591260                       # Energy for read commands per rank (pJ)
system.mem_ctrls.rank0.writeEnergy             955260                       # Energy for write commands per rank (pJ)
system.mem_ctrls.rank0.refreshEnergy     5724142320.000001                       # Energy for refresh commands per rank (pJ)
system.mem_ctrls.rank0.actBackEnergy      26772337410                       # Energy for active background per rank (pJ)
system.mem_ctrls.rank0.preBackEnergy       5302179360                       # Energy for precharge background per rank (pJ)
system.mem_ctrls.rank0.actPowerDownEnergy            0                       # Energy for active power-down per rank (pJ)
system.mem_ctrls.rank0.prePowerDownEnergy            0                       # Energy for precharge power-down per rank (pJ)
system.mem_ctrls.rank0.selfRefreshEnergy            0                       # Energy for self refresh per rank (pJ)
system.mem_ctrls.rank0.totalEnergy        38229457020                       # Total energy per rank (pJ)
system.mem_ctrls.rank0.averagePower        527.164527                       # Core power per rank (mW)
system.mem_ctrls.rank0.totalIdleTime                0                       # Total Idle time Per DRAM Rank
system.mem_ctrls.rank0.memoryStateTime::IDLE  13550669250                       # Time in different power states
system.mem_ctrls.rank0.memoryStateTime::REF   2421380000                       # Time in different power states
system.mem_ctrls.rank0.memoryStateTime::SREF            0                       # Time in different power states
system.mem_ctrls.rank0.memoryStateTime::PRE_PDN            0                       # Time in different power states
system.mem_ctrls.rank0.memoryStateTime::ACT  56546974750                       # Time in different power states
system.mem_ctrls.rank0.memoryStateTime::ACT_PDN            0                       # Time in different power states
system.cpu_clk_domain.clock                       500                       # Clock period in ticks
system.cpu.numPwrStateTransitions                   1                       # Number of power state transitions
system.cpu.pwrStateResidencyTicks::ON     72519024000                       # Cumulative time (in ticks) in various power states
system.cpu.icache.pwrStateResidencyTicks::UNDEFINED  72519024000                       # Cumulative time (in ticks) in various power states
system.cpu.icache.demand_hits::.cpu.inst     42469776                       # number of demand (read+write) hits
system.cpu.icache.demand_hits::total         42469776                       # number of demand (read+write) hits
system.cpu.icache.overall_hits::.cpu.inst     42469776                       # number of overall hits
system.cpu.icache.overall_hits::total        42469776                       # number of overall hits
system.cpu.icache.demand_misses::.cpu.inst          521                       # number of demand (read+write) misses
system.cpu.icache.demand_misses::total            521                       # number of demand (read+write) misses
system.cpu.icache.overall_misses::.cpu.inst          521                       # number of overall misses
system.cpu.icache.overall_misses::total           521                       # number of overall misses
system.cpu.icache.demand_miss_latency::.cpu.inst     29898500                       # number of demand (read+write) miss cycles
system.cpu.icache.demand_miss_latency::total     29898500                       # number of demand (read+write) miss cycles
system.cpu.icache.overall_miss_latency::.cpu.inst     29898500                       # number of overall miss cycles
system.cpu.icache.overall_miss_latency::total     29898500                       # number of overall miss cycles
system.cpu.icache.demand_accesses::.cpu.inst     42470297                       # number of demand (read+write) accesses
system.cpu.icache.demand_accesses::total     42470297                       # number of demand (read+write) accesses
system.cpu.icache.overall_accesses::.cpu.inst     42470297                       # number of overall (read+write) accesses
system.cpu.icache.overall_accesses::total     42470297                       # number of overall (read+write) accesses
system.cpu.icache.demand_miss_rate::.cpu.inst     0.000012                       # miss rate for demand accesses
system.cpu.icache.demand_miss_rate::total     0.000012                       # miss rate for demand accesses
system.cpu.icache.overall_miss_rate::.cpu.inst     0.000012                       # miss rate for overall accesses
system.cpu.icache.overall_miss_rate::total     0.000012                       # miss rate for overall accesses
system.cpu.icache.demand_avg_miss_latency::.cpu.inst 57386.756238                       # average overall miss latency
system.cpu.icache.demand_avg_miss_latency::total 57386.756238                       # average overall miss latency
system.cpu.icache.overall_avg_miss_latency::.cpu.inst 57386.756238                       # average overall miss latency
system.cpu.icache.overall_avg_miss_latency::total 57386.756238                       # average overall miss latency
system.cpu.icache.blocked_cycles::no_mshrs            0                       # number of cycles access was blocked
system.cpu.icache.blocked_cycles::no_targets            0                       # number of cycles access was blocked
system.cpu.icache.blocked::no_mshrs                 0                       # number of cycles access was blocked
system.cpu.icache.blocked::no_targets               0                       # number of cycles access was blocked
system.cpu.icache.avg_blocked_cycles::no_mshrs          nan                       # average number of cycles each access was blocked
system.cpu.icache.avg_blocked_cycles::no_targets          nan                       # average number of cycles each access was blocked
system.cpu.icache.writebacks::.writebacks          147                       # number of writebacks
system.cpu.icache.writebacks::total               147                       # number of writebacks
system.cpu.icache.demand_mshr_misses::.cpu.inst          521                       # number of demand (read+write) MSHR misses
system.cpu.icache.demand_mshr_misses::total          521                       # number of demand (read+write) MSHR misses
system.cpu.icache.overall_mshr_misses::.cpu.inst          521                       # number of overall MSHR misses
system.cpu.icache.overall_mshr_misses::total          521                       # number of overall MSHR misses
system.cpu.icache.demand_mshr_miss_latency::.cpu.inst     29377500                       # number of demand (read+write) MSHR miss cycles
system.cpu.icache.demand_mshr_miss_latency::total     29377500                       # number of demand (read+write) MSHR miss cycles
system.cpu.icache.overall_mshr_miss_latency::.cpu.inst     29377500                       # number of overall MSHR miss cycles
system.cpu.icache.overall_mshr_miss_latency::total     29377500                       # number of overall MSHR miss cycles
system.cpu.icache.demand_mshr_miss_rate::.cpu.inst     0.000012                       # mshr miss rate for demand accesses
system.cpu.icache.demand_mshr_miss_rate::total     0.000012                       # mshr miss rate for demand accesses
system.cpu.icache.overall_mshr_miss_rate::.cpu.inst     0.000012                       # mshr miss rate for overall accesses
system.cpu.icache.overall_mshr_miss_rate::total     0.000012                       # mshr miss rate for overall accesses
system.cpu.icache.demand_avg_mshr_miss_latency::.cpu.inst 56386.756238                       # average overall mshr miss latency
system.cpu.icache.demand_avg_mshr_miss_latency::total 56386.756238                       # average overall mshr miss latency
system.cpu.icache.overall_avg_mshr_miss_latency::.cpu.inst 56386.756238                       # average overall mshr miss latency
system.cpu.icache.overall_avg_mshr_miss_latency::total 56386.756238                       # average overall mshr miss latency
system.cpu.icache.replacements                    147                       # number of replacements
system.cpu.icache.ReadReq_hits::.cpu.inst     42469776                       # number of ReadReq hits
system.cpu.icache.ReadReq_hits::total        42469776                       # number of ReadReq hits
system.cpu.icache.ReadReq_misses::.cpu.inst          521                       # number of ReadReq misses
system.cpu.icache.ReadReq_misses::total           521                       # number of ReadReq misses
system.cpu.icache.ReadReq_miss_latency::.cpu.inst     29898500                       # number of ReadReq miss cycles
system.cpu.icache.ReadReq_miss_latency::total     29898500                       # number of ReadReq miss cycles
system.cpu.icache.ReadReq_accesses::.cpu.inst     42470297                       # number of ReadReq accesses(hits+misses)
system.cpu.icache.ReadReq_accesses::total     42470297                       # number of ReadReq accesses(hits+misses)
system.cpu.icache.ReadReq_miss_rate::.cpu.inst     0.000012                       # miss rate for ReadReq accesses
system.cpu.icache.ReadReq_miss_rate::total     0.000012                       # miss rate for ReadReq accesses
system.cpu.icache.ReadReq_avg_miss_latency::.cpu.inst 57386.756238                       # average ReadReq miss latency
system.cpu.icache.ReadReq_avg_miss_latency::total 57386.756238                       # average ReadReq miss latency
system.cpu.icache.ReadReq_mshr_misses::.cpu.inst          521                       # number of ReadReq MSHR misses
system.cpu.icache.ReadReq_mshr_misses::total          521                       # number of ReadReq MSHR misses
system.cpu.icache.ReadReq_mshr_miss_latency::.cpu.inst     29377500                       # number of ReadReq MSHR miss cycles
system.cpu.icache.ReadReq_mshr_miss_latency::total     29377500                       # number of ReadReq MSHR miss cycles
system.cpu.icache.ReadReq_mshr_miss_rate::.cpu.inst     0.000012                       # mshr miss rate for ReadReq accesses
system.cpu.icache.ReadReq_mshr_miss_rate::total     0.000012                       # mshr miss rate for ReadReq accesses
system.cpu.icache.ReadReq_avg_mshr_miss_latency::.cpu.inst 56386.756238                       # average ReadReq mshr miss latency
system.cpu.icache.ReadReq_avg_mshr_miss_latency::total 56386.756238                       # average ReadReq mshr miss latency
system.cpu.icache.tags.pwrStateResidencyTicks::UNDEFINED  72519024000                       # Cumulative time (in ticks) in various power states
system.cpu.icache.tags.tagsinuse           274.941160                       # Cycle average of tags in use
system.cpu.icache.tags.total_refs            42470297                       # Total number of references to valid blocks.
system.cpu.icache.tags.sampled_refs               521                       # Sample count of references to valid blocks.
system.cpu.icache.tags.avg_refs          81516.884837                       # Average number of references to valid blocks.
system.cpu.icache.tags.warmup_cycle             77000                       # Cycle when the warmup percentage was hit.
system.cpu.icache.tags.occ_blocks::.cpu.inst   274.941160                       # Average occupied blocks per requestor
system.cpu.icache.tags.occ_percent::.cpu.inst     0.536994                       # Average percentage of cache occupancy
system.cpu.icache.tags.occ_percent::total     0.536994                       # Average percentage of cache occupancy
system.cpu.icache.tags.occ_task_id_blocks::1024          374                       # Occupied blocks per task id
system.cpu.icache.tags.age_task_id_blocks_1024::0           76                       # Occupied blocks per task id
system.cpu.icache.tags.age_task_id_blocks_1024::1          109                       # Occupied blocks per task id
system.cpu.icache.tags.age_task_id_blocks_1024::4          189                       # Occupied blocks per task id
system.cpu.icache.tags.occ_task_id_percent::1024     0.730469                       # Percentage of cache occupancy per task id
system.cpu.icache.tags.tag_accesses          84941115                       # Number of tag accesses
system.cpu.icache.tags.data_accesses         84941115                       # Number of data accesses
system.cpu.dtb.walker.pwrStateResidencyTicks::UNDEFINED  72519024000                       # Cumulative time (in ticks) in various power states
system.cpu.dtb.stage2_mmu.stage2_tlb.walker.pwrStateResidencyTicks::UNDEFINED  72519024000                       # Cumulative time (in ticks) in various power states
system.cpu.itb.walker.pwrStateResidencyTicks::UNDEFINED  72519024000                       # Cumulative time (in ticks) in various power states
system.cpu.itb.stage2_mmu.stage2_tlb.walker.pwrStateResidencyTicks::UNDEFINED  72519024000                       # Cumulative time (in ticks) in various power states
system.cpu.dcache.pwrStateResidencyTicks::UNDEFINED  72519024000                       # Cumulative time (in ticks) in various power states
system.cpu.dcache.demand_hits::.cpu.data     27349304                       # number of demand (read+write) hits
system.cpu.dcache.demand_hits::total         27349304                       # number of demand (read+write) hits
system.cpu.dcache.overall_hits::.cpu.data     27349304                       # number of overall hits
system.cpu.dcache.overall_hits::total        27349304                       # number of overall hits
system.cpu.dcache.demand_misses::.cpu.data        47957                       # number of demand (read+write) misses
system.cpu.dcache.demand_misses::total          47957                       # number of demand (read+write) misses
system.cpu.dcache.overall_misses::.cpu.data        47957                       # number of overall misses
system.cpu.dcache.overall_misses::total         47957                       # number of overall misses
system.cpu.dcache.demand_miss_latency::.cpu.data   2668525500                       # number of demand (read+write) miss cycles
system.cpu.dcache.demand_miss_latency::total   2668525500                       # number of demand (read+write) miss cycles
system.cpu.dcache.overall_miss_latency::.cpu.data   2668525500                       # number of overall miss cycles
system.cpu.dcache.overall_miss_latency::total   2668525500                       # number of overall miss cycles
system.cpu.dcache.demand_accesses::.cpu.data     27397261                       # number of demand (read+write) accesses
system.cpu.dcache.demand_accesses::total     27397261                       # number of demand (read+write) accesses
system.cpu.dcache.overall_accesses::.cpu.data     27397261                       # number of overall (read+write) accesses
system.cpu.dcache.overall_accesses::total     27397261                       # number of overall (read+write) accesses
system.cpu.dcache.demand_miss_rate::.cpu.data     0.001750                       # miss rate for demand accesses
system.cpu.dcache.demand_miss_rate::total     0.001750                       # miss rate for demand accesses
system.cpu.dcache.overall_miss_rate::.cpu.data     0.001750                       # miss rate for overall accesses
system.cpu.dcache.overall_miss_rate::total     0.001750                       # miss rate for overall accesses
system.cpu.dcache.demand_avg_miss_latency::.cpu.data 55644.129116                       # average overall miss latency
system.cpu.dcache.demand_avg_miss_latency::total 55644.129116                       # average overall miss latency
system.cpu.dcache.overall_avg_miss_latency::.cpu.data 55644.129116                       # average overall miss latency
system.cpu.dcache.overall_avg_miss_latency::total 55644.129116                       # average overall miss latency
system.cpu.dcache.blocked_cycles::no_mshrs            0                       # number of cycles access was blocked
system.cpu.dcache.blocked_cycles::no_targets            0                       # number of cycles access was blocked
system.cpu.dcache.blocked::no_mshrs                 0                       # number of cycles access was blocked
system.cpu.dcache.blocked::no_targets               0                       # number of cycles access was blocked
system.cpu.dcache.avg_blocked_cycles::no_mshrs          nan                       # average number of cycles each access was blocked
system.cpu.dcache.avg_blocked_cycles::no_targets          nan                       # average number of cycles each access was blocked
system.cpu.dcache.writebacks::.writebacks         2426                       # number of writebacks
system.cpu.dcache.writebacks::total              2426                       # number of writebacks
system.cpu.dcache.demand_mshr_misses::.cpu.data        47957                       # number of demand (read+write) MSHR misses
system.cpu.dcache.demand_mshr_misses::total        47957                       # number of demand (read+write) MSHR misses
system.cpu.dcache.overall_mshr_misses::.cpu.data        47957                       # number of overall MSHR misses
system.cpu.dcache.overall_mshr_misses::total        47957                       # number of overall MSHR misses
system.cpu.dcache.demand_mshr_miss_latency::.cpu.data   2620568500                       # number of demand (read+write) MSHR miss cycles
system.cpu.dcache.demand_mshr_miss_latency::total   2620568500                       # number of demand (read+write) MSHR miss cycles
system.cpu.dcache.overall_mshr_miss_latency::.cpu.data   2620568500                       # number of overall MSHR miss cycles
system.cpu.dcache.overall_mshr_miss_latency::total   2620568500                       # number of overall MSHR miss cycles
system.cpu.dcache.demand_mshr_miss_rate::.cpu.data     0.001750                       # mshr miss rate for demand accesses
system.cpu.dcache.demand_mshr_miss_rate::total     0.001750                       # mshr miss rate for demand accesses
system.cpu.dcache.overall_mshr_miss_rate::.cpu.data     0.001750                       # mshr miss rate for overall accesses
system.cpu.dcache.overall_mshr_miss_rate::total     0.001750                       # mshr miss rate for overall accesses
system.cpu.dcache.demand_avg_mshr_miss_latency::.cpu.data 54644.129116                       # average overall mshr miss latency
system.cpu.dcache.demand_avg_mshr_miss_latency::total 54644.129116                       # average overall mshr miss latency
system.cpu.dcache.overall_avg_mshr_miss_latency::.cpu.data 54644.129116                       # average overall mshr miss latency
system.cpu.dcache.overall_avg_mshr_miss_latency::total 54644.129116                       # average overall mshr miss latency
system.cpu.dcache.replacements                  47893                       # number of replacements
system.cpu.dcache.ReadReq_hits::.cpu.data     16390020                       # number of ReadReq hits
system.cpu.dcache.ReadReq_hits::total        16390020                       # number of ReadReq hits
system.cpu.dcache.ReadReq_misses::.cpu.data        47699                       # number of ReadReq misses
system.cpu.dcache.ReadReq_misses::total         47699                       # number of ReadReq misses
system.cpu.dcache.ReadReq_miss_latency::.cpu.data   2659839500                       # number of ReadReq miss cycles
system.cpu.dcache.ReadReq_miss_latency::total   2659839500                       # number of ReadReq miss cycles
system.cpu.dcache.ReadReq_accesses::.cpu.data     16437719                       # number of ReadReq accesses(hits+misses)
system.cpu.dcache.ReadReq_accesses::total     16437719                       # number of ReadReq accesses(hits+misses)
system.cpu.dcache.ReadReq_miss_rate::.cpu.data     0.002902                       # miss rate for ReadReq accesses
system.cpu.dcache.ReadReq_miss_rate::total     0.002902                       # miss rate for ReadReq accesses
system.cpu.dcache.ReadReq_avg_miss_latency::.cpu.data 55763.003417                       # average ReadReq miss latency
system.cpu.dcache.ReadReq_avg_miss_latency::total 55763.003417                       # average ReadReq miss latency
system.cpu.dcache.ReadReq_mshr_misses::.cpu.data        47699                       # number of ReadReq MSHR misses
system.cpu.dcache.ReadReq_mshr_misses::total        47699                       # number of ReadReq MSHR misses
system.cpu.dcache.ReadReq_mshr_miss_latency::.cpu.data   2612140500                       # number of ReadReq MSHR miss cycles
system.cpu.dcache.ReadReq_mshr_miss_latency::total   2612140500                       # number of ReadReq MSHR miss cycles
system.cpu.dcache.ReadReq_mshr_miss_rate::.cpu.data     0.002902                       # mshr miss rate for ReadReq accesses
system.cpu.dcache.ReadReq_mshr_miss_rate::total     0.002902                       # mshr miss rate for ReadReq accesses
system.cpu.dcache.ReadReq_avg_mshr_miss_latency::.cpu.data 54763.003417                       # average ReadReq mshr miss latency
system.cpu.dcache.ReadReq_avg_mshr_miss_latency::total 54763.003417                       # average ReadReq mshr miss latency
system.cpu.dcache.WriteReq_hits::.cpu.data     10959284                       # number of WriteReq hits
system.cpu.dcache.WriteReq_hits::total       10959284                       # number of WriteReq hits
system.cpu.dcache.WriteReq_misses::.cpu.data          258                       # number of WriteReq misses
system.cpu.dcache.WriteReq_misses::total          258                       # number of WriteReq misses
system.cpu.dcache.WriteReq_miss_latency::.cpu.data      8686000                       # number of WriteReq miss cycles
system.cpu.dcache.WriteReq_miss_latency::total      8686000                       # number of WriteReq miss cycles
system.cpu.dcache.WriteReq_accesses::.cpu.data     10959542                       # number of WriteReq accesses(hits+misses)
system.cpu.dcache.WriteReq_accesses::total     10959542                       # number of WriteReq accesses(hits+misses)
system.cpu.dcache.WriteReq_miss_rate::.cpu.data     0.000024                       # miss rate for WriteReq accesses
system.cpu.dcache.WriteReq_miss_rate::total     0.000024                       # miss rate for WriteReq accesses
system.cpu.dcache.WriteReq_avg_miss_latency::.cpu.data 33666.666667                       # average WriteReq miss latency
system.cpu.dcache.WriteReq_avg_miss_latency::total 33666.666667                       # average WriteReq miss latency
system.cpu.dcache.WriteReq_mshr_misses::.cpu.data          258                       # number of WriteReq MSHR misses
system.cpu.dcache.WriteReq_mshr_misses::total          258                       # number of WriteReq MSHR misses
system.cpu.dcache.WriteReq_mshr_miss_latency::.cpu.data      8428000                       # number of WriteReq MSHR miss cycles
system.cpu.dcache.WriteReq_mshr_miss_latency::total      8428000                       # number of WriteReq MSHR miss cycles
system.cpu.dcache.WriteReq_mshr_miss_rate::.cpu.data     0.000024                       # mshr miss rate for WriteReq accesses
system.cpu.dcache.WriteReq_mshr_miss_rate::total     0.000024                       # mshr miss rate for WriteReq accesses
system.cpu.dcache.WriteReq_avg_mshr_miss_latency::.cpu.data 32666.666667                       # average WriteReq mshr miss latency
system.cpu.dcache.WriteReq_avg_mshr_miss_latency::total 32666.666667                       # average WriteReq mshr miss latency
system.cpu.dcache.LoadLockedReq_hits::.cpu.data           28                       # number of LoadLockedReq hits
system.cpu.dcache.LoadLockedReq_hits::total           28                       # number of LoadLockedReq hits
system.cpu.dcache.LoadLockedReq_accesses::.cpu.data           28                       # number of LoadLockedReq accesses(hits+misses)
system.cpu.dcache.LoadLockedReq_accesses::total           28                       # number of LoadLockedReq accesses(hits+misses)
system.cpu.dcache.StoreCondReq_hits::.cpu.data           28                       # number of StoreCondReq hits
system.cpu.dcache.StoreCondReq_hits::total           28                       # number of StoreCondReq hits
system.cpu.dcache.StoreCondReq_accesses::.cpu.data           28                       # number of StoreCondReq accesses(hits+misses)
system.cpu.dcache.StoreCondReq_accesses::total           28                       # number of StoreCondReq accesses(hits+misses)
system.cpu.dcache.tags.pwrStateResidencyTicks::UNDEFINED  72519024000                       # Cumulative time (in ticks) in various power states
system.cpu.dcache.tags.tagsinuse            63.993843                       # Cycle average of tags in use
system.cpu.dcache.tags.total_refs            27397317                       # Total number of references to valid blocks.
system.cpu.dcache.tags.sampled_refs             47957                       # Sample count of references to valid blocks.
system.cpu.dcache.tags.avg_refs            571.289217                       # Average number of references to valid blocks.
system.cpu.dcache.tags.warmup_cycle            148000                       # Cycle when the warmup percentage was hit.
system.cpu.dcache.tags.occ_blocks::.cpu.data    63.993843                       # Average occupied blocks per requestor
system.cpu.dcache.tags.occ_percent::.cpu.data     0.999904                       # Average percentage of cache occupancy
system.cpu.dcache.tags.occ_percent::total     0.999904                       # Average percentage of cache occupancy
system.cpu.dcache.tags.occ_task_id_blocks::1024           64                       # Occupied blocks per task id
system.cpu.dcache.tags.age_task_id_blocks_1024::0           29                       # Occupied blocks per task id
system.cpu.dcache.tags.age_task_id_blocks_1024::1           30                       # Occupied blocks per task id
system.cpu.dcache.tags.age_task_id_blocks_1024::2            1                       # Occupied blocks per task id
system.cpu.dcache.tags.age_task_id_blocks_1024::4            4                       # Occupied blocks per task id
system.cpu.dcache.tags.occ_task_id_percent::1024            1                       # Percentage of cache occupancy per task id
system.cpu.dcache.tags.tag_accesses          54842591                       # Number of tag accesses
system.cpu.dcache.tags.data_accesses         54842591                       # Number of data accesses

---------- End Simulation Statistics   ----------
