
---------- Begin Simulation Statistics ----------
final_tick                                35159037000                       # Number of ticks from beginning of simulation (restored from checkpoints and never reset)
host_inst_rate                                 919945                       # Simulator instruction rate (inst/s)
host_mem_usage                                 684548                       # Number of bytes of host memory used
host_op_rate                                  1627892                       # Simulator op (including micro ops) rate (op/s)
host_seconds                                    26.42                       # Real time elapsed on the host
host_tick_rate                             1330602367                       # Simulator tick rate (ticks/s)
sim_freq                                 1000000000000                       # Frequency of simulated ticks
sim_insts                                    24307985                       # Number of instructions simulated
sim_ops                                      43014418                       # Number of ops (including micro ops) simulated
sim_seconds                                  0.035159                       # Number of seconds simulated
sim_ticks                                 35159037000                       # Number of ticks simulated
system.cpu.Branches                           1784595                       # Number of branches fetched
system.cpu.committedInsts                    24307985                       # Number of instructions committed
system.cpu.committedOps                      43014418                       # Number of ops (including micro ops) committed
system.cpu.dtb.rdAccesses                     5153196                       # TLB accesses on read requests
system.cpu.dtb.rdMisses                            16                       # TLB misses on read requests
system.cpu.dtb.wrAccesses                       66968                       # TLB accesses on write requests
system.cpu.dtb.wrMisses                            16                       # TLB misses on write requests
system.cpu.idle_fraction                     0.000000                       # Percentage of idle cycles
system.cpu.itb.rdAccesses                           0                       # TLB accesses on read requests
system.cpu.itb.rdMisses                             0                       # TLB misses on read requests
system.cpu.itb.wrAccesses                    29674979                       # TLB accesses on write requests
system.cpu.itb.wrMisses                            55                       # TLB misses on write requests
system.cpu.not_idle_fraction                 1.000000                       # Percentage of non-idle cycles
system.cpu.numCycles                         70318074                       # number of cpu cycles simulated
system.cpu.numWorkItemsCompleted                    0                       # number of work items this cpu completed
system.cpu.numWorkItemsStarted                      0                       # number of work items this cpu started
system.cpu.num_busy_cycles               70318073.998000                       # Number of busy cycles
system.cpu.num_cc_register_reads              9219669                       # number of times the CC registers were read
system.cpu.num_cc_register_writes            23716538                       # number of times the CC registers were written
system.cpu.num_conditional_control_insts      1772651                       # number of instructions that are conditional controls
system.cpu.num_fp_alu_accesses                  88162                       # Number of float alu accesses
system.cpu.num_fp_insts                         88162                       # number of float instructions
system.cpu.num_fp_register_reads               138086                       # number of times the floating registers were read
system.cpu.num_fp_register_writes               76741                       # number of times the floating registers were written
system.cpu.num_func_calls                        3646                       # number of times a function call or return occured
system.cpu.num_idle_cycles                   0.002000                       # Number of idle cycles
system.cpu.num_int_alu_accesses              42831872                       # Number of integer alu accesses
system.cpu.num_int_insts                     42831872                       # number of integer instructions
system.cpu.num_int_register_reads            84417793                       # number of times the integer registers were read
system.cpu.num_int_register_writes           44342158                       # number of times the integer registers were written
system.cpu.num_load_insts                     5153085                       # Number of load instructions
system.cpu.num_mem_refs                       5219940                       # number of memory refs
system.cpu.num_store_insts                      66855                       # Number of store instructions
system.cpu.num_vec_alu_accesses                     0                       # Number of vector alu accesses
system.cpu.num_vec_insts                            0                       # number of vector instructions
system.cpu.num_vec_register_reads                   0                       # number of times the vector registers were read
system.cpu.num_vec_register_writes                  0                       # number of times the vector registers were written
system.cpu.op_class::No_OpClass                123871      0.29%      0.29% # Class of executed instruction
system.cpu.op_class::IntAlu                  34300206     79.74%     80.03% # Class of executed instruction
system.cpu.op_class::IntMult                  3272661      7.61%     87.64% # Class of executed instruction
system.cpu.op_class::IntDiv                     50585      0.12%     87.75% # Class of executed instruction
system.cpu.op_class::FloatAdd                    8129      0.02%     87.77% # Class of executed instruction
system.cpu.op_class::FloatCmp                       0      0.00%     87.77% # Class of executed instruction
system.cpu.op_class::FloatCvt                       0      0.00%     87.77% # Class of executed instruction
system.cpu.op_class::FloatMult                      0      0.00%     87.77% # Class of executed instruction
system.cpu.op_class::FloatMultAcc                   0      0.00%     87.77% # Class of executed instruction
system.cpu.op_class::FloatDiv                       0      0.00%     87.77% # Class of executed instruction
system.cpu.op_class::FloatMisc                      0      0.00%     87.77% # Class of executed instruction
system.cpu.op_class::FloatSqrt                      0      0.00%     87.77% # Class of executed instruction
system.cpu.op_class::SimdAdd                      374      0.00%     87.77% # Class of executed instruction
system.cpu.op_class::SimdAddAcc                     0      0.00%     87.77% # Class of executed instruction
system.cpu.op_class::SimdAlu                     4064      0.01%     87.78% # Class of executed instruction
system.cpu.op_class::SimdCmp                        0      0.00%     87.78% # Class of executed instruction
system.cpu.op_class::SimdCvt                      128      0.00%     87.78% # Class of executed instruction
system.cpu.op_class::SimdMisc                    5418      0.01%     87.80% # Class of executed instruction
system.cpu.op_class::SimdMult                       0      0.00%     87.80% # Class of executed instruction
system.cpu.op_class::SimdMultAcc                    0      0.00%     87.80% # Class of executed instruction
system.cpu.op_class::SimdShift                    186      0.00%     87.80% # Class of executed instruction
system.cpu.op_class::SimdShiftAcc                   0      0.00%     87.80% # Class of executed instruction
system.cpu.op_class::SimdDiv                        0      0.00%     87.80% # Class of executed instruction
system.cpu.op_class::SimdSqrt                       0      0.00%     87.80% # Class of executed instruction
system.cpu.op_class::SimdFloatAdd               12512      0.03%     87.82% # Class of executed instruction
system.cpu.op_class::SimdFloatAlu                   0      0.00%     87.82% # Class of executed instruction
system.cpu.op_class::SimdFloatCmp                   0      0.00%     87.82% # Class of executed instruction
system.cpu.op_class::SimdFloatCvt                4945      0.01%     87.84% # Class of executed instruction
system.cpu.op_class::SimdFloatDiv                 738      0.00%     87.84% # Class of executed instruction
system.cpu.op_class::SimdFloatMisc                  0      0.00%     87.84% # Class of executed instruction
system.cpu.op_class::SimdFloatMult              11557      0.03%     87.86% # Class of executed instruction
system.cpu.op_class::SimdFloatMultAcc               0      0.00%     87.86% # Class of executed instruction
system.cpu.op_class::SimdFloatSqrt                  0      0.00%     87.86% # Class of executed instruction
system.cpu.op_class::SimdReduceAdd                  0      0.00%     87.86% # Class of executed instruction
system.cpu.op_class::SimdReduceAlu                  0      0.00%     87.86% # Class of executed instruction
system.cpu.op_class::SimdReduceCmp                  0      0.00%     87.86% # Class of executed instruction
system.cpu.op_class::SimdFloatReduceAdd             0      0.00%     87.86% # Class of executed instruction
system.cpu.op_class::SimdFloatReduceCmp             0      0.00%     87.86% # Class of executed instruction
system.cpu.op_class::SimdAes                        0      0.00%     87.86% # Class of executed instruction
system.cpu.op_class::SimdAesMix                     0      0.00%     87.86% # Class of executed instruction
system.cpu.op_class::SimdSha1Hash                   0      0.00%     87.86% # Class of executed instruction
system.cpu.op_class::SimdSha1Hash2                  0      0.00%     87.86% # Class of executed instruction
system.cpu.op_class::SimdSha256Hash                 0      0.00%     87.86% # Class of executed instruction
system.cpu.op_class::SimdSha256Hash2                0      0.00%     87.86% # Class of executed instruction
system.cpu.op_class::SimdShaSigma2                  0      0.00%     87.86% # Class of executed instruction
system.cpu.op_class::SimdShaSigma3                  0      0.00%     87.86% # Class of executed instruction
system.cpu.op_class::SimdPredAlu                    0      0.00%     87.86% # Class of executed instruction
system.cpu.op_class::MemRead                  5134419     11.94%     99.80% # Class of executed instruction
system.cpu.op_class::MemWrite                   62132      0.14%     99.95% # Class of executed instruction
system.cpu.op_class::FloatMemRead               18666      0.04%     99.99% # Class of executed instruction
system.cpu.op_class::FloatMemWrite               4723      0.01%    100.00% # Class of executed instruction
system.cpu.op_class::IprAccess                      0      0.00%    100.00% # Class of executed instruction
system.cpu.op_class::InstPrefetch                   0      0.00%    100.00% # Class of executed instruction
system.cpu.op_class::total                   43015314                       # Class of executed instruction
system.cpu.workload.numSyscalls                    17                       # Number of system calls
system.membus.snoop_filter.hit_multi_requests            1                       # Number of requests hitting in the snoop filter with multiple (>1) holders of the requested data.
system.membus.snoop_filter.hit_multi_snoops            0                       # Number of snoops hitting in the snoop filter with multiple (>1) holders of the requested data.
system.membus.snoop_filter.hit_single_requests         4490                       # Number of requests hitting in the snoop filter with a single holder of the requested data.
system.membus.snoop_filter.hit_single_snoops            0                       # Number of snoops hitting in the snoop filter with a single holder of the requested data.
system.membus.snoop_filter.tot_requests          9044                       # Total number of requests made to the snoop filter.
system.membus.snoop_filter.tot_snoops               0                       # Total number of snoops made to the snoop filter.
system.membus.pwrStateResidencyTicks::UNDEFINED  35159037000                       # Cumulative time (in ticks) in various power states
system.membus.trans_dist::ReadResp               3877                       # Transaction distribution
system.membus.trans_dist::WritebackDirty         1252                       # Transaction distribution
system.membus.trans_dist::WritebackClean         1371                       # Transaction distribution
system.membus.trans_dist::CleanEvict             1867                       # Transaction distribution
system.membus.trans_dist::ReadExReq               677                       # Transaction distribution
system.membus.trans_dist::ReadExResp              677                       # Transaction distribution
system.membus.trans_dist::ReadCleanReq           1403                       # Transaction distribution
system.membus.trans_dist::ReadSharedReq          2474                       # Transaction distribution
system.membus.pkt_count_system.cpu.icache.mem_side::system.mem_ctrls.port         4177                       # Packet count per connected master and slave (bytes)
system.membus.pkt_count_system.cpu.icache.mem_side::total         4177                       # Packet count per connected master and slave (bytes)
system.membus.pkt_count_system.cpu.dcache.mem_side::system.mem_ctrls.port         9421                       # Packet count per connected master and slave (bytes)
system.membus.pkt_count_system.cpu.dcache.mem_side::total         9421                       # Packet count per connected master and slave (bytes)
system.membus.pkt_count::total                  13598                       # Packet count per connected master and slave (bytes)
system.membus.pkt_size_system.cpu.icache.mem_side::system.mem_ctrls.port       355072                       # Cumulative packet size per connected master and slave (bytes)
system.membus.pkt_size_system.cpu.icache.mem_side::total       355072                       # Cumulative packet size per connected master and slave (bytes)
system.membus.pkt_size_system.cpu.dcache.mem_side::system.mem_ctrls.port       563584                       # Cumulative packet size per connected master and slave (bytes)
system.membus.pkt_size_system.cpu.dcache.mem_side::total       563584                       # Cumulative packet size per connected master and slave (bytes)
system.membus.pkt_size::total                  918656                       # Cumulative packet size per connected master and slave (bytes)
system.membus.snoops                                0                       # Total snoops (count)
system.membus.snoopTraffic                          0                       # Total snoop traffic (bytes)
system.membus.snoop_fanout::samples              4554                       # Request fanout histogram
system.membus.snoop_fanout::mean             0.000220                       # Request fanout histogram
system.membus.snoop_fanout::stdev            0.014818                       # Request fanout histogram
system.membus.snoop_fanout::underflows              0      0.00%      0.00% # Request fanout histogram
system.membus.snoop_fanout::0                    4553     99.98%     99.98% # Request fanout histogram
system.membus.snoop_fanout::1                       1      0.02%    100.00% # Request fanout histogram
system.membus.snoop_fanout::2                       0      0.00%    100.00% # Request fanout histogram
system.membus.snoop_fanout::3                       0      0.00%    100.00% # Request fanout histogram
system.membus.snoop_fanout::4                       0      0.00%    100.00% # Request fanout histogram
system.membus.snoop_fanout::overflows               0      0.00%    100.00% # Request fanout histogram
system.membus.snoop_fanout::min_value               0                       # Request fanout histogram
system.membus.snoop_fanout::max_value               1                       # Request fanout histogram
system.membus.snoop_fanout::total                4554                       # Request fanout histogram
system.membus.reqLayer2.occupancy            30089000                       # Layer occupancy (ticks)
system.membus.reqLayer2.utilization               0.1                       # Layer utilization (%)
system.membus.respLayer1.occupancy           12882000                       # Layer occupancy (ticks)
system.membus.respLayer1.utilization              0.0                       # Layer utilization (%)
system.membus.respLayer2.occupancy           29294250                       # Layer occupancy (ticks)
system.membus.respLayer2.utilization              0.1                       # Layer utilization (%)
system.voltage_domain.voltage                       1                       # Voltage in Volts
system.clk_domain.clock                          1000                       # Clock period in ticks
system.cpu_voltage_domain.voltage                   1                       # Voltage in Volts
system.mem_ctrls.pwrStateResidencyTicks::UNDEFINED  35159037000                       # Cumulative time (in ticks) in various power states
system.mem_ctrls.bytes_read::.cpu.inst         179584                       # Number of bytes read from this memory
system.mem_ctrls.bytes_read::.cpu.data         403328                       # Number of bytes read from this memory
system.mem_ctrls.bytes_read::total             582912                       # Number of bytes read from this memory
system.mem_ctrls.bytes_inst_read::.cpu.inst       179584                       # Number of instructions bytes read from this memory
system.mem_ctrls.bytes_inst_read::total        179584                       # Number of instructions bytes read from this memory
system.mem_ctrls.bytes_written::.writebacks       160256                       # Number of bytes written to this memory
system.mem_ctrls.bytes_written::total          160256                       # Number of bytes written to this memory
system.mem_ctrls.num_reads::.cpu.inst            1403                       # Number of read requests responded to by this memory
system.mem_ctrls.num_reads::.cpu.data            3151                       # Number of read requests responded to by this memory
system.mem_ctrls.num_reads::total                4554                       # Number of read requests responded to by this memory
system.mem_ctrls.num_writes::.writebacks         1252                       # Number of write requests responded to by this memory
system.mem_ctrls.num_writes::total               1252                       # Number of write requests responded to by this memory
system.mem_ctrls.bw_read::.cpu.inst           5107762                       # Total read bandwidth from this memory (bytes/s)
system.mem_ctrls.bw_read::.cpu.data          11471531                       # Total read bandwidth from this memory (bytes/s)
system.mem_ctrls.bw_read::total              16579294                       # Total read bandwidth from this memory (bytes/s)
system.mem_ctrls.bw_inst_read::.cpu.inst      5107762                       # Instruction read bandwidth from this memory (bytes/s)
system.mem_ctrls.bw_inst_read::total          5107762                       # Instruction read bandwidth from this memory (bytes/s)
system.mem_ctrls.bw_write::.writebacks        4558032                       # Write bandwidth from this memory (bytes/s)
system.mem_ctrls.bw_write::total              4558032                       # Write bandwidth from this memory (bytes/s)
system.mem_ctrls.bw_total::.writebacks        4558032                       # Total bandwidth to/from this memory (bytes/s)
system.mem_ctrls.bw_total::.cpu.inst          5107762                       # Total bandwidth to/from this memory (bytes/s)
system.mem_ctrls.bw_total::.cpu.data         11471531                       # Total bandwidth to/from this memory (bytes/s)
system.mem_ctrls.bw_total::total             21137325                       # Total bandwidth to/from this memory (bytes/s)
system.mem_ctrls.avgPriority_.writebacks::samples      3327.00                       # Average QoS priority value for accepted requests
system.mem_ctrls.avgPriority_.cpu.inst::samples      1350.00                       # Average QoS priority value for accepted requests
system.mem_ctrls.avgPriority_.cpu.data::samples      5707.00                       # Average QoS priority value for accepted requests
system.mem_ctrls.priorityMinLatency      0.000000018750                       # per QoS priority minimum request to response latency (s)
system.mem_ctrls.priorityMaxLatency      0.064903733750                       # per QoS priority maximum request to response latency (s)
system.mem_ctrls.numReadWriteTurnArounds          200                       # Number of turnarounds from READ to WRITE
system.mem_ctrls.numWriteReadTurnArounds          200                       # Number of turnarounds from WRITE to READ
system.mem_ctrls.numStayReadState               22048                       # Number of times bus staying in READ state
system.mem_ctrls.numStayWriteState               3099                       # Number of times bus staying in WRITE state
system.mem_ctrls.readReqs                        4554                       # Number of read requests accepted
system.mem_ctrls.writeReqs                       2622                       # Number of write requests accepted
system.mem_ctrls.readBursts                      9108                       # Number of DRAM read bursts, including those serviced by the write queue
system.mem_ctrls.writeBursts                     5244                       # Number of DRAM write bursts, including those merged in the write queue
system.mem_ctrls.servicedByWrQ                   2051                       # Number of DRAM read bursts serviced by the write queue
system.mem_ctrls.mergedWrBursts                  1917                       # Number of DRAM write bursts merged with an existing one
system.mem_ctrls.neitherReadNorWriteReqs            0                       # Number of requests that are neither read nor write
system.mem_ctrls.perBankRdBursts::0               195                       # Per bank write bursts
system.mem_ctrls.perBankRdBursts::1                38                       # Per bank write bursts
system.mem_ctrls.perBankRdBursts::2                14                       # Per bank write bursts
system.mem_ctrls.perBankRdBursts::3               188                       # Per bank write bursts
system.mem_ctrls.perBankRdBursts::4               330                       # Per bank write bursts
system.mem_ctrls.perBankRdBursts::5               210                       # Per bank write bursts
system.mem_ctrls.perBankRdBursts::6               254                       # Per bank write bursts
system.mem_ctrls.perBankRdBursts::7               215                       # Per bank write bursts
system.mem_ctrls.perBankRdBursts::8               916                       # Per bank write bursts
system.mem_ctrls.perBankRdBursts::9              1448                       # Per bank write bursts
system.mem_ctrls.perBankRdBursts::10             1681                       # Per bank write bursts
system.mem_ctrls.perBankRdBursts::11             1368                       # Per bank write bursts
system.mem_ctrls.perBankRdBursts::12               68                       # Per bank write bursts
system.mem_ctrls.perBankRdBursts::13               76                       # Per bank write bursts
system.mem_ctrls.perBankRdBursts::14               10                       # Per bank write bursts
system.mem_ctrls.perBankRdBursts::15               46                       # Per bank write bursts
system.mem_ctrls.perBankWrBursts::0               160                       # Per bank write bursts
system.mem_ctrls.perBankWrBursts::1                40                       # Per bank write bursts
system.mem_ctrls.perBankWrBursts::2                 0                       # Per bank write bursts
system.mem_ctrls.perBankWrBursts::3               136                       # Per bank write bursts
system.mem_ctrls.perBankWrBursts::4               212                       # Per bank write bursts
system.mem_ctrls.perBankWrBursts::5               142                       # Per bank write bursts
system.mem_ctrls.perBankWrBursts::6               214                       # Per bank write bursts
system.mem_ctrls.perBankWrBursts::7               138                       # Per bank write bursts
system.mem_ctrls.perBankWrBursts::8                16                       # Per bank write bursts
system.mem_ctrls.perBankWrBursts::9               324                       # Per bank write bursts
system.mem_ctrls.perBankWrBursts::10             1045                       # Per bank write bursts
system.mem_ctrls.perBankWrBursts::11              670                       # Per bank write bursts
system.mem_ctrls.perBankWrBursts::12               62                       # Per bank write bursts
system.mem_ctrls.perBankWrBursts::13               76                       # Per bank write bursts
system.mem_ctrls.perBankWrBursts::14               10                       # Per bank write bursts
system.mem_ctrls.perBankWrBursts::15               50                       # Per bank write bursts
system.mem_ctrls.avgRdQLen                       2.00                       # Average read queue length when enqueuing
system.mem_ctrls.avgWrQLen                      25.57                       # Average write queue length when enqueuing
system.mem_ctrls.totQLat                    104109250                       # Total ticks spent queuing
system.mem_ctrls.totBusLat                   35285000                       # Total ticks spent in databus transfers
system.mem_ctrls.totMemAccLat               236428000                       # Total ticks spent from burst creation until serviced by the DRAM
system.mem_ctrls.avgQLat                     14752.62                       # Average queueing delay per DRAM burst
system.mem_ctrls.avgBusLat                    5000.00                       # Average bus latency per DRAM burst
system.mem_ctrls.avgMemAccLat                33502.62                       # Average memory access latency per DRAM burst
system.mem_ctrls.numRdRetry                         0                       # Number of times read queue was full causing retry
system.mem_ctrls.numWrRetry                         0                       # Number of times write queue was full causing retry
system.mem_ctrls.readRowHits                     5971                       # Number of row buffer hits during reads
system.mem_ctrls.writeRowHits                    2923                       # Number of row buffer hits during writes
system.mem_ctrls.readRowHitRate                 84.61                       # Row buffer hit rate for reads
system.mem_ctrls.writeRowHitRate                87.86                       # Row buffer hit rate for writes
system.mem_ctrls.readPktSize::0                     0                       # Read request sizes (log2)
system.mem_ctrls.readPktSize::1                     0                       # Read request sizes (log2)
system.mem_ctrls.readPktSize::2                     0                       # Read request sizes (log2)
system.mem_ctrls.readPktSize::3                     0                       # Read request sizes (log2)
system.mem_ctrls.readPktSize::4                     0                       # Read request sizes (log2)
system.mem_ctrls.readPktSize::5                     0                       # Read request sizes (log2)
system.mem_ctrls.readPktSize::6                  9108                       # Read request sizes (log2)
system.mem_ctrls.writePktSize::0                    0                       # Write request sizes (log2)
system.mem_ctrls.writePktSize::1                    0                       # Write request sizes (log2)
system.mem_ctrls.writePktSize::2                    0                       # Write request sizes (log2)
system.mem_ctrls.writePktSize::3                    0                       # Write request sizes (log2)
system.mem_ctrls.writePktSize::4                    0                       # Write request sizes (log2)
system.mem_ctrls.writePktSize::5                    0                       # Write request sizes (log2)
system.mem_ctrls.writePktSize::6                 5244                       # Write request sizes (log2)
system.mem_ctrls.rdQLenPdf::0                    3508                       # What read queue length does an incoming req see
system.mem_ctrls.rdQLenPdf::1                    3506                       # What read queue length does an incoming req see
system.mem_ctrls.rdQLenPdf::2                      22                       # What read queue length does an incoming req see
system.mem_ctrls.rdQLenPdf::3                      21                       # What read queue length does an incoming req see
system.mem_ctrls.rdQLenPdf::4                       0                       # What read queue length does an incoming req see
system.mem_ctrls.rdQLenPdf::5                       0                       # What read queue length does an incoming req see
system.mem_ctrls.rdQLenPdf::6                       0                       # What read queue length does an incoming req see
system.mem_ctrls.rdQLenPdf::7                       0                       # What read queue length does an incoming req see
system.mem_ctrls.rdQLenPdf::8                       0                       # What read queue length does an incoming req see
system.mem_ctrls.rdQLenPdf::9                       0                       # What read queue length does an incoming req see
system.mem_ctrls.rdQLenPdf::10                      0                       # What read queue length does an incoming req see
system.mem_ctrls.rdQLenPdf::11                      0                       # What read queue length does an incoming req see
system.mem_ctrls.rdQLenPdf::12                      0                       # What read queue length does an incoming req see
system.mem_ctrls.rdQLenPdf::13                      0                       # What read queue length does an incoming req see
system.mem_ctrls.rdQLenPdf::14                      0                       # What read queue length does an incoming req see
system.mem_ctrls.rdQLenPdf::15                      0                       # What read queue length does an incoming req see
system.mem_ctrls.rdQLenPdf::16                      0                       # What read queue length does an incoming req see
system.mem_ctrls.rdQLenPdf::17                      0                       # What read queue length does an incoming req see
system.mem_ctrls.rdQLenPdf::18                      0                       # What read queue length does an incoming req see
system.mem_ctrls.rdQLenPdf::19                      0                       # What read queue length does an incoming req see
system.mem_ctrls.rdQLenPdf::20                      0                       # What read queue length does an incoming req see
system.mem_ctrls.rdQLenPdf::21                      0                       # What read queue length does an incoming req see
system.mem_ctrls.rdQLenPdf::22                      0                       # What read queue length does an incoming req see
system.mem_ctrls.rdQLenPdf::23                      0                       # What read queue length does an incoming req see
system.mem_ctrls.rdQLenPdf::24                      0                       # What read queue length does an incoming req see
system.mem_ctrls.rdQLenPdf::25                      0                       # What read queue length does an incoming req see
system.mem_ctrls.rdQLenPdf::26                      0                       # What read queue length does an incoming req see
system.mem_ctrls.rdQLenPdf::27                      0                       # What read queue length does an incoming req see
system.mem_ctrls.rdQLenPdf::28                      0                       # What read queue length does an incoming req see
system.mem_ctrls.rdQLenPdf::29                      0                       # What read queue length does an incoming req see
system.mem_ctrls.rdQLenPdf::30                      0                       # What read queue length does an incoming req see
system.mem_ctrls.rdQLenPdf::31                      0                       # What read queue length does an incoming req see
system.mem_ctrls.wrQLenPdf::0                       1                       # What write queue length does an incoming req see
system.mem_ctrls.wrQLenPdf::1                       1                       # What write queue length does an incoming req see
system.mem_ctrls.wrQLenPdf::2                       1                       # What write queue length does an incoming req see
system.mem_ctrls.wrQLenPdf::3                       1                       # What write queue length does an incoming req see
system.mem_ctrls.wrQLenPdf::4                       1                       # What write queue length does an incoming req see
system.mem_ctrls.wrQLenPdf::5                       1                       # What write queue length does an incoming req see
system.mem_ctrls.wrQLenPdf::6                       1                       # What write queue length does an incoming req see
system.mem_ctrls.wrQLenPdf::7                       1                       # What write queue length does an incoming req see
system.mem_ctrls.wrQLenPdf::8                       1                       # What write queue length does an incoming req see
system.mem_ctrls.wrQLenPdf::9                       1                       # What write queue length does an incoming req see
system.mem_ctrls.wrQLenPdf::10                      1                       # What write queue length does an incoming req see
system.mem_ctrls.wrQLenPdf::11                      1                       # What write queue length does an incoming req see
system.mem_ctrls.wrQLenPdf::12                      1                       # What write queue length does an incoming req see
system.mem_ctrls.wrQLenPdf::13                      1                       # What write queue length does an incoming req see
system.mem_ctrls.wrQLenPdf::14                      1                       # What write queue length does an incoming req see
system.mem_ctrls.wrQLenPdf::15                     34                       # What write queue length does an incoming req see
system.mem_ctrls.wrQLenPdf::16                     45                       # What write queue length does an incoming req see
system.mem_ctrls.wrQLenPdf::17                    183                       # What write queue length does an incoming req see
system.mem_ctrls.wrQLenPdf::18                    200                       # What write queue length does an incoming req see
system.mem_ctrls.wrQLenPdf::19                    203                       # What write queue length does an incoming req see
system.mem_ctrls.wrQLenPdf::20                    203                       # What write queue length does an incoming req see
system.mem_ctrls.wrQLenPdf::21                    202                       # What write queue length does an incoming req see
system.mem_ctrls.wrQLenPdf::22                    203                       # What write queue length does an incoming req see
system.mem_ctrls.wrQLenPdf::23                    203                       # What write queue length does an incoming req see
system.mem_ctrls.wrQLenPdf::24                    201                       # What write queue length does an incoming req see
system.mem_ctrls.wrQLenPdf::25                    201                       # What write queue length does an incoming req see
system.mem_ctrls.wrQLenPdf::26                    201                       # What write queue length does an incoming req see
system.mem_ctrls.wrQLenPdf::27                    201                       # What write queue length does an incoming req see
system.mem_ctrls.wrQLenPdf::28                    201                       # What write queue length does an incoming req see
system.mem_ctrls.wrQLenPdf::29                    201                       # What write queue length does an incoming req see
system.mem_ctrls.wrQLenPdf::30                    201                       # What write queue length does an incoming req see
system.mem_ctrls.wrQLenPdf::31                    201                       # What write queue length does an incoming req see
system.mem_ctrls.wrQLenPdf::32                    200                       # What write queue length does an incoming req see
system.mem_ctrls.wrQLenPdf::33                     28                       # What write queue length does an incoming req see
system.mem_ctrls.wrQLenPdf::34                      0                       # What write queue length does an incoming req see
system.mem_ctrls.wrQLenPdf::35                      0                       # What write queue length does an incoming req see
system.mem_ctrls.wrQLenPdf::36                      0                       # What write queue length does an incoming req see
system.mem_ctrls.wrQLenPdf::37                      0                       # What write queue length does an incoming req see
system.mem_ctrls.wrQLenPdf::38                      0                       # What write queue length does an incoming req see
system.mem_ctrls.wrQLenPdf::39                      0                       # What write queue length does an incoming req see
system.mem_ctrls.wrQLenPdf::40                      0                       # What write queue length does an incoming req see
system.mem_ctrls.wrQLenPdf::41                      0                       # What write queue length does an incoming req see
system.mem_ctrls.wrQLenPdf::42                      0                       # What write queue length does an incoming req see
system.mem_ctrls.wrQLenPdf::43                      0                       # What write queue length does an incoming req see
system.mem_ctrls.wrQLenPdf::44                      0                       # What write queue length does an incoming req see
system.mem_ctrls.wrQLenPdf::45                      0                       # What write queue length does an incoming req see
system.mem_ctrls.wrQLenPdf::46                      0                       # What write queue length does an incoming req see
system.mem_ctrls.wrQLenPdf::47                      0                       # What write queue length does an incoming req see
system.mem_ctrls.wrQLenPdf::48                      0                       # What write queue length does an incoming req see
system.mem_ctrls.wrQLenPdf::49                      0                       # What write queue length does an incoming req see
system.mem_ctrls.wrQLenPdf::50                      0                       # What write queue length does an incoming req see
system.mem_ctrls.wrQLenPdf::51                      0                       # What write queue length does an incoming req see
system.mem_ctrls.wrQLenPdf::52                      0                       # What write queue length does an incoming req see
system.mem_ctrls.wrQLenPdf::53                      0                       # What write queue length does an incoming req see
system.mem_ctrls.wrQLenPdf::54                      0                       # What write queue length does an incoming req see
system.mem_ctrls.wrQLenPdf::55                      0                       # What write queue length does an incoming req see
system.mem_ctrls.wrQLenPdf::56                      0                       # What write queue length does an incoming req see
system.mem_ctrls.wrQLenPdf::57                      0                       # What write queue length does an incoming req see
system.mem_ctrls.wrQLenPdf::58                      0                       # What write queue length does an incoming req see
system.mem_ctrls.wrQLenPdf::59                      0                       # What write queue length does an incoming req see
system.mem_ctrls.wrQLenPdf::60                      0                       # What write queue length does an incoming req see
system.mem_ctrls.wrQLenPdf::61                      0                       # What write queue length does an incoming req see
system.mem_ctrls.wrQLenPdf::62                      0                       # What write queue length does an incoming req see
system.mem_ctrls.wrQLenPdf::63                      0                       # What write queue length does an incoming req see
system.mem_ctrls.bytesPerActivate::samples         1449                       # Bytes accessed per row activation
system.mem_ctrls.bytesPerActivate::mean    455.994479                       # Bytes accessed per row activation
system.mem_ctrls.bytesPerActivate::gmean   327.781468                       # Bytes accessed per row activation
system.mem_ctrls.bytesPerActivate::stdev   354.156690                       # Bytes accessed per row activation
system.mem_ctrls.bytesPerActivate::0-127           19      1.31%      1.31% # Bytes accessed per row activation
system.mem_ctrls.bytesPerActivate::128-255          473     32.64%     33.95% # Bytes accessed per row activation
system.mem_ctrls.bytesPerActivate::256-383          267     18.43%     52.38% # Bytes accessed per row activation
system.mem_ctrls.bytesPerActivate::384-511          147     10.14%     62.53% # Bytes accessed per row activation
system.mem_ctrls.bytesPerActivate::512-639          102      7.04%     69.57% # Bytes accessed per row activation
system.mem_ctrls.bytesPerActivate::640-767           49      3.38%     72.95% # Bytes accessed per row activation
system.mem_ctrls.bytesPerActivate::768-895           44      3.04%     75.98% # Bytes accessed per row activation
system.mem_ctrls.bytesPerActivate::896-1023           18      1.24%     77.23% # Bytes accessed per row activation
system.mem_ctrls.bytesPerActivate::1024-1151          330     22.77%    100.00% # Bytes accessed per row activation
system.mem_ctrls.bytesPerActivate::total         1449                       # Bytes accessed per row activation
system.mem_ctrls.rdPerTurnAround::samples          200                       # Reads before turning the bus around for writes
system.mem_ctrls.rdPerTurnAround::mean      35.165000                       # Reads before turning the bus around for writes
system.mem_ctrls.rdPerTurnAround::gmean     21.416328                       # Reads before turning the bus around for writes
system.mem_ctrls.rdPerTurnAround::stdev    113.964015                       # Reads before turning the bus around for writes
system.mem_ctrls.rdPerTurnAround::0-63            193     96.50%     96.50% # Reads before turning the bus around for writes
system.mem_ctrls.rdPerTurnAround::128-191            4      2.00%     98.50% # Reads before turning the bus around for writes
system.mem_ctrls.rdPerTurnAround::384-447            1      0.50%     99.00% # Reads before turning the bus around for writes
system.mem_ctrls.rdPerTurnAround::512-575            1      0.50%     99.50% # Reads before turning the bus around for writes
system.mem_ctrls.rdPerTurnAround::1408-1471            1      0.50%    100.00% # Reads before turning the bus around for writes
system.mem_ctrls.rdPerTurnAround::total           200                       # Reads before turning the bus around for writes
system.mem_ctrls.wrPerTurnAround::samples          200                       # Writes before turning the bus around for reads
system.mem_ctrls.wrPerTurnAround::mean      16.475000                       # Writes before turning the bus around for reads
system.mem_ctrls.wrPerTurnAround::gmean     16.450635                       # Writes before turning the bus around for reads
system.mem_ctrls.wrPerTurnAround::stdev      0.929351                       # Writes before turning the bus around for reads
system.mem_ctrls.wrPerTurnAround::16              151     75.50%     75.50% # Writes before turning the bus around for reads
system.mem_ctrls.wrPerTurnAround::17               14      7.00%     82.50% # Writes before turning the bus around for reads
system.mem_ctrls.wrPerTurnAround::18               27     13.50%     96.00% # Writes before turning the bus around for reads
system.mem_ctrls.wrPerTurnAround::19                6      3.00%     99.00% # Writes before turning the bus around for reads
system.mem_ctrls.wrPerTurnAround::20                1      0.50%     99.50% # Writes before turning the bus around for reads
system.mem_ctrls.wrPerTurnAround::21                1      0.50%    100.00% # Writes before turning the bus around for reads
system.mem_ctrls.wrPerTurnAround::total           200                       # Writes before turning the bus around for reads
system.mem_ctrls.bytesReadDRAM                 451648                       # Total number of bytes read from DRAM
system.mem_ctrls.bytesReadWrQ                  131264                       # Total number of bytes read from write queue
system.mem_ctrls.bytesWritten                  210880                       # Total number of bytes written to DRAM
system.mem_ctrls.bytesReadSys                  582912                       # Total read bytes from the system interface side
system.mem_ctrls.bytesWrittenSys               335616                       # Total written bytes from the system interface side
system.mem_ctrls.avgRdBW                        12.85                       # Average DRAM read bandwidth in MiByte/s
system.mem_ctrls.avgWrBW                         6.00                       # Average achieved write bandwidth in MiByte/s
system.mem_ctrls.avgRdBWSys                     16.58                       # Average system read bandwidth in MiByte/s
system.mem_ctrls.avgWrBWSys                      9.55                       # Average system write bandwidth in MiByte/s
system.mem_ctrls.peakBW                      12800.00                       # Theoretical peak bandwidth in MiByte/s
system.mem_ctrls.busUtil                         0.15                       # Data bus utilization in percentage
system.mem_ctrls.busUtilRead                     0.10                       # Data bus utilization in percentage for reads
system.mem_ctrls.busUtilWrite                    0.05                       # Data bus utilization in percentage for writes
system.mem_ctrls.totGap                   35159018000                       # Total gap between requests
system.mem_ctrls.avgGap                    4899528.71                       # Average gap between requests
system.mem_ctrls.masterReadBytes::.cpu.inst        86400                       # Per-master bytes read from memory
system.mem_ctrls.masterReadBytes::.cpu.data       365248                       # Per-master bytes read from memory
system.mem_ctrls.masterWriteBytes::.writebacks       210880                       # Per-master bytes write to memory
system.mem_ctrls.masterReadRate::.cpu.inst 2457405.190022696275                       # Per-master bytes read from memory rate (Bytes/sec)
system.mem_ctrls.masterReadRate::.cpu.data 10388452.903303353116                       # Per-master bytes read from memory rate (Bytes/sec)
system.mem_ctrls.masterWriteRate::.writebacks 5997888.963796135969                       # Per-master bytes write to memory rate (Bytes/sec)
system.mem_ctrls.masterReadAccesses::.cpu.inst         2806                       # Per-master read serviced memory accesses
system.mem_ctrls.masterReadAccesses::.cpu.data         6302                       # Per-master read serviced memory accesses
system.mem_ctrls.masterWriteAccesses::.writebacks         5244                       # Per-master write serviced memory accesses
system.mem_ctrls.masterReadTotalLat::.cpu.inst     53120500                       # Per-master read total memory access latency
system.mem_ctrls.masterReadTotalLat::.cpu.data    183307500                       # Per-master read total memory access latency
system.mem_ctrls.masterWriteTotalLat::.writebacks 850050329750                       # Per-master write total memory access latency
system.mem_ctrls.masterReadAvgLat::.cpu.inst     18931.04                       # Per-master read average memory access latency
system.mem_ctrls.masterReadAvgLat::.cpu.data     29087.19                       # Per-master read average memory access latency
system.mem_ctrls.masterWriteAvgLat::.writebacks 162099605.22                       # Per-master write average memory access latency
system.mem_ctrls.pageHitRate                    85.65                       # Row buffer hit rate, read and write combined
system.mem_ctrls.rank1.actEnergy              6890100                       # Energy for activate commands per rank (pJ)
system.mem_ctrls.rank1.preEnergy              3654585                       # Energy for precharge commands per rank (pJ)
system.mem_ctrls.rank1.readEnergy            40076820                       # Energy for read commands per rank (pJ)
system.mem_ctrls.rank1.writeEnergy           11760660                       # Energy for write commands per rank (pJ)
system.mem_ctrls.rank1.refreshEnergy     2775099600.000000                       # Energy for refresh commands per rank (pJ)
system.mem_ctrls.rank1.actBackEnergy       1432623750                       # Energy for active background per rank (pJ)
system.mem_ctrls.rank1.preBackEnergy      12294650400                       # Energy for precharge background per rank (pJ)
system.mem_ctrls.rank1.actPowerDownEnergy            0                       # Energy for active power-down per rank (pJ)
system.mem_ctrls.rank1.prePowerDownEnergy            0                       # Energy for precharge power-down per rank (pJ)
system.mem_ctrls.rank1.selfRefreshEnergy            0                       # Energy for self refresh per rank (pJ)
system.mem_ctrls.rank1.totalEnergy        16564755915                       # Total energy per rank (pJ)
system.mem_ctrls.rank1.averagePower        471.137930                       # Core power per rank (mW)
system.mem_ctrls.rank1.totalIdleTime                0                       # Total Idle time Per DRAM Rank
system.mem_ctrls.rank1.memoryStateTime::IDLE  31949689250                       # Time in different power states
system.mem_ctrls.rank1.memoryStateTime::REF   1173900000                       # Time in different power states
system.mem_ctrls.rank1.memoryStateTime::SREF            0                       # Time in different power states
system.mem_ctrls.rank1.memoryStateTime::PRE_PDN            0                       # Time in different power states
system.mem_ctrls.rank1.memoryStateTime::ACT   2035447750                       # Time in different power states
system.mem_ctrls.rank1.memoryStateTime::ACT_PDN            0                       # Time in different power states
system.mem_ctrls.rank0.actEnergy              3520020                       # Energy for activate commands per rank (pJ)
system.mem_ctrls.rank0.preEnergy              1844370                       # Energy for precharge commands per rank (pJ)
system.mem_ctrls.rank0.readEnergy            10310160                       # Energy for read commands per rank (pJ)
system.mem_ctrls.rank0.writeEnergy            5439240                       # Energy for write commands per rank (pJ)
system.mem_ctrls.rank0.refreshEnergy     2775099600.000000                       # Energy for refresh commands per rank (pJ)
system.mem_ctrls.rank0.actBackEnergy        595145550                       # Energy for active background per rank (pJ)
system.mem_ctrls.rank0.preBackEnergy      12999895200                       # Energy for precharge background per rank (pJ)
system.mem_ctrls.rank0.actPowerDownEnergy            0                       # Energy for active power-down per rank (pJ)
system.mem_ctrls.rank0.prePowerDownEnergy            0                       # Energy for precharge power-down per rank (pJ)
system.mem_ctrls.rank0.selfRefreshEnergy            0                       # Energy for self refresh per rank (pJ)
system.mem_ctrls.rank0.totalEnergy        16391254140                       # Total energy per rank (pJ)
system.mem_ctrls.rank0.averagePower        466.203160                       # Core power per rank (mW)
system.mem_ctrls.rank0.totalIdleTime                0                       # Total Idle time Per DRAM Rank
system.mem_ctrls.rank0.memoryStateTime::IDLE  33791321750                       # Time in different power states
system.mem_ctrls.rank0.memoryStateTime::REF   1173900000                       # Time in different power states
system.mem_ctrls.rank0.memoryStateTime::SREF            0                       # Time in different power states
system.mem_ctrls.rank0.memoryStateTime::PRE_PDN            0                       # Time in different power states
system.mem_ctrls.rank0.memoryStateTime::ACT    193815250                       # Time in different power states
system.mem_ctrls.rank0.memoryStateTime::ACT_PDN            0                       # Time in different power states
system.cpu_clk_domain.clock                       500                       # Clock period in ticks
system.cpu.numPwrStateTransitions                   1                       # Number of power state transitions
system.cpu.pwrStateResidencyTicks::ON     35159037000                       # Cumulative time (in ticks) in various power states
system.cpu.icache.pwrStateResidencyTicks::UNDEFINED  35159037000                       # Cumulative time (in ticks) in various power states
system.cpu.icache.demand_hits::.cpu.inst     29673576                       # number of demand (read+write) hits
system.cpu.icache.demand_hits::total         29673576                       # number of demand (read+write) hits
system.cpu.icache.overall_hits::.cpu.inst     29673576                       # number of overall hits
system.cpu.icache.overall_hits::total        29673576                       # number of overall hits
system.cpu.icache.demand_misses::.cpu.inst         1403                       # number of demand (read+write) misses
system.cpu.icache.demand_misses::total           1403                       # number of demand (read+write) misses
system.cpu.icache.overall_misses::.cpu.inst         1403                       # number of overall misses
system.cpu.icache.overall_misses::total          1403                       # number of overall misses
system.cpu.icache.demand_miss_latency::.cpu.inst     66623000                       # number of demand (read+write) miss cycles
system.cpu.icache.demand_miss_latency::total     66623000                       # number of demand (read+write) miss cycles
system.cpu.icache.overall_miss_latency::.cpu.inst     66623000                       # number of overall miss cycles
system.cpu.icache.overall_miss_latency::total     66623000                       # number of overall miss cycles
system.cpu.icache.demand_accesses::.cpu.inst     29674979                       # number of demand (read+write) accesses
system.cpu.icache.demand_accesses::total     29674979                       # number of demand (read+write) accesses
system.cpu.icache.overall_accesses::.cpu.inst     29674979                       # number of overall (read+write) accesses
system.cpu.icache.overall_accesses::total     29674979                       # number of overall (read+write) accesses
system.cpu.icache.demand_miss_rate::.cpu.inst     0.000047                       # miss rate for demand accesses
system.cpu.icache.demand_miss_rate::total     0.000047                       # miss rate for demand accesses
system.cpu.icache.overall_miss_rate::.cpu.inst     0.000047                       # miss rate for overall accesses
system.cpu.icache.overall_miss_rate::total     0.000047                       # miss rate for overall accesses
system.cpu.icache.demand_avg_miss_latency::.cpu.inst 47486.101212                       # average overall miss latency
system.cpu.icache.demand_avg_miss_latency::total 47486.101212                       # average overall miss latency
system.cpu.icache.overall_avg_miss_latency::.cpu.inst 47486.101212                       # average overall miss latency
system.cpu.icache.overall_avg_miss_latency::total 47486.101212                       # average overall miss latency
system.cpu.icache.blocked_cycles::no_mshrs            0                       # number of cycles access was blocked
system.cpu.icache.blocked_cycles::no_targets            0                       # number of cycles access was blocked
system.cpu.icache.blocked::no_mshrs                 0                       # number of cycles access was blocked
system.cpu.icache.blocked::no_targets               0                       # number of cycles access was blocked
system.cpu.icache.avg_blocked_cycles::no_mshrs          nan                       # average number of cycles each access was blocked
system.cpu.icache.avg_blocked_cycles::no_targets          nan                       # average number of cycles each access was blocked
system.cpu.icache.writebacks::.writebacks         1371                       # number of writebacks
system.cpu.icache.writebacks::total              1371                       # number of writebacks
system.cpu.icache.demand_mshr_misses::.cpu.inst         1403                       # number of demand (read+write) MSHR misses
system.cpu.icache.demand_mshr_misses::total         1403                       # number of demand (read+write) MSHR misses
system.cpu.icache.overall_mshr_misses::.cpu.inst         1403                       # number of overall MSHR misses
system.cpu.icache.overall_mshr_misses::total         1403                       # number of overall MSHR misses
system.cpu.icache.demand_mshr_miss_latency::.cpu.inst     65220000                       # number of demand (read+write) MSHR miss cycles
system.cpu.icache.demand_mshr_miss_latency::total     65220000                       # number of demand (read+write) MSHR miss cycles
system.cpu.icache.overall_mshr_miss_latency::.cpu.inst     65220000                       # number of overall MSHR miss cycles
system.cpu.icache.overall_mshr_miss_latency::total     65220000                       # number of overall MSHR miss cycles
system.cpu.icache.demand_mshr_miss_rate::.cpu.inst     0.000047                       # mshr miss rate for demand accesses
system.cpu.icache.demand_mshr_miss_rate::total     0.000047                       # mshr miss rate for demand accesses
system.cpu.icache.overall_mshr_miss_rate::.cpu.inst     0.000047                       # mshr miss rate for overall accesses
system.cpu.icache.overall_mshr_miss_rate::total     0.000047                       # mshr miss rate for overall accesses
system.cpu.icache.demand_avg_mshr_miss_latency::.cpu.inst 46486.101212                       # average overall mshr miss latency
system.cpu.icache.demand_avg_mshr_miss_latency::total 46486.101212                       # average overall mshr miss latency
system.cpu.icache.overall_avg_mshr_miss_latency::.cpu.inst 46486.101212                       # average overall mshr miss latency
system.cpu.icache.overall_avg_mshr_miss_latency::total 46486.101212                       # average overall mshr miss latency
system.cpu.icache.replacements                   1371                       # number of replacements
system.cpu.icache.ReadReq_hits::.cpu.inst     29673576                       # number of ReadReq hits
system.cpu.icache.ReadReq_hits::total        29673576                       # number of ReadReq hits
system.cpu.icache.ReadReq_misses::.cpu.inst         1403                       # number of ReadReq misses
system.cpu.icache.ReadReq_misses::total          1403                       # number of ReadReq misses
system.cpu.icache.ReadReq_miss_latency::.cpu.inst     66623000                       # number of ReadReq miss cycles
system.cpu.icache.ReadReq_miss_latency::total     66623000                       # number of ReadReq miss cycles
system.cpu.icache.ReadReq_accesses::.cpu.inst     29674979                       # number of ReadReq accesses(hits+misses)
system.cpu.icache.ReadReq_accesses::total     29674979                       # number of ReadReq accesses(hits+misses)
system.cpu.icache.ReadReq_miss_rate::.cpu.inst     0.000047                       # miss rate for ReadReq accesses
system.cpu.icache.ReadReq_miss_rate::total     0.000047                       # miss rate for ReadReq accesses
system.cpu.icache.ReadReq_avg_miss_latency::.cpu.inst 47486.101212                       # average ReadReq miss latency
system.cpu.icache.ReadReq_avg_miss_latency::total 47486.101212                       # average ReadReq miss latency
system.cpu.icache.ReadReq_mshr_misses::.cpu.inst         1403                       # number of ReadReq MSHR misses
system.cpu.icache.ReadReq_mshr_misses::total         1403                       # number of ReadReq MSHR misses
system.cpu.icache.ReadReq_mshr_miss_latency::.cpu.inst     65220000                       # number of ReadReq MSHR miss cycles
system.cpu.icache.ReadReq_mshr_miss_latency::total     65220000                       # number of ReadReq MSHR miss cycles
system.cpu.icache.ReadReq_mshr_miss_rate::.cpu.inst     0.000047                       # mshr miss rate for ReadReq accesses
system.cpu.icache.ReadReq_mshr_miss_rate::total     0.000047                       # mshr miss rate for ReadReq accesses
system.cpu.icache.ReadReq_avg_mshr_miss_latency::.cpu.inst 46486.101212                       # average ReadReq mshr miss latency
system.cpu.icache.ReadReq_avg_mshr_miss_latency::total 46486.101212                       # average ReadReq mshr miss latency
system.cpu.icache.tags.pwrStateResidencyTicks::UNDEFINED  35159037000                       # Cumulative time (in ticks) in various power states
system.cpu.icache.tags.tagsinuse            31.997091                       # Cycle average of tags in use
system.cpu.icache.tags.total_refs            29674979                       # Total number of references to valid blocks.
system.cpu.icache.tags.sampled_refs              1403                       # Sample count of references to valid blocks.
system.cpu.icache.tags.avg_refs          21151.089808                       # Average number of references to valid blocks.
system.cpu.icache.tags.warmup_cycle             82000                       # Cycle when the warmup percentage was hit.
system.cpu.icache.tags.occ_blocks::.cpu.inst    31.997091                       # Average occupied blocks per requestor
system.cpu.icache.tags.occ_percent::.cpu.inst     0.999909                       # Average percentage of cache occupancy
system.cpu.icache.tags.occ_percent::total     0.999909                       # Average percentage of cache occupancy
system.cpu.icache.tags.occ_task_id_blocks::1024           32                       # Occupied blocks per task id
system.cpu.icache.tags.age_task_id_blocks_1024::0           31                       # Occupied blocks per task id
system.cpu.icache.tags.age_task_id_blocks_1024::1            1                       # Occupied blocks per task id
system.cpu.icache.tags.occ_task_id_percent::1024            1                       # Percentage of cache occupancy per task id
system.cpu.icache.tags.tag_accesses          59351361                       # Number of tag accesses
system.cpu.icache.tags.data_accesses         59351361                       # Number of data accesses
system.cpu.dtb.walker.pwrStateResidencyTicks::UNDEFINED  35159037000                       # Cumulative time (in ticks) in various power states
system.cpu.interrupts.clk_domain.clock           8000                       # Clock period in ticks
system.cpu.itb_walker_cache.pwrStateResidencyTicks::UNDEFINED  35159037000                       # Cumulative time (in ticks) in various power states
system.cpu.itb_walker_cache.blocked_cycles::no_mshrs            0                       # number of cycles access was blocked
system.cpu.itb_walker_cache.blocked_cycles::no_targets            0                       # number of cycles access was blocked
system.cpu.itb_walker_cache.blocked::no_mshrs            0                       # number of cycles access was blocked
system.cpu.itb_walker_cache.blocked::no_targets            0                       # number of cycles access was blocked
system.cpu.itb_walker_cache.avg_blocked_cycles::no_mshrs          nan                       # average number of cycles each access was blocked
system.cpu.itb_walker_cache.avg_blocked_cycles::no_targets          nan                       # average number of cycles each access was blocked
system.cpu.itb_walker_cache.replacements            0                       # number of replacements
system.cpu.itb_walker_cache.tags.pwrStateResidencyTicks::UNDEFINED  35159037000                       # Cumulative time (in ticks) in various power states
system.cpu.itb_walker_cache.tags.tagsinuse            0                       # Cycle average of tags in use
system.cpu.itb_walker_cache.tags.total_refs            0                       # Total number of references to valid blocks.
system.cpu.itb_walker_cache.tags.sampled_refs            0                       # Sample count of references to valid blocks.
system.cpu.itb_walker_cache.tags.avg_refs          nan                       # Average number of references to valid blocks.
system.cpu.itb_walker_cache.tags.warmup_cycle            0                       # Cycle when the warmup percentage was hit.
system.cpu.itb_walker_cache.tags.tag_accesses            0                       # Number of tag accesses
system.cpu.itb_walker_cache.tags.data_accesses            0                       # Number of data accesses
system.cpu.itb.walker.pwrStateResidencyTicks::UNDEFINED  35159037000                       # Cumulative time (in ticks) in various power states
system.cpu.dtb_walker_cache.pwrStateResidencyTicks::UNDEFINED  35159037000                       # Cumulative time (in ticks) in various power states
system.cpu.dtb_walker_cache.blocked_cycles::no_mshrs            0                       # number of cycles access was blocked
system.cpu.dtb_walker_cache.blocked_cycles::no_targets            0                       # number of cycles access was blocked
system.cpu.dtb_walker_cache.blocked::no_mshrs            0                       # number of cycles access was blocked
system.cpu.dtb_walker_cache.blocked::no_targets            0                       # number of cycles access was blocked
system.cpu.dtb_walker_cache.avg_blocked_cycles::no_mshrs          nan                       # average number of cycles each access was blocked
system.cpu.dtb_walker_cache.avg_blocked_cycles::no_targets          nan                       # average number of cycles each access was blocked
system.cpu.dtb_walker_cache.replacements            0                       # number of replacements
system.cpu.dtb_walker_cache.tags.pwrStateResidencyTicks::UNDEFINED  35159037000                       # Cumulative time (in ticks) in various power states
system.cpu.dtb_walker_cache.tags.tagsinuse            0                       # Cycle average of tags in use
system.cpu.dtb_walker_cache.tags.total_refs            0                       # Total number of references to valid blocks.
system.cpu.dtb_walker_cache.tags.sampled_refs            0                       # Sample count of references to valid blocks.
system.cpu.dtb_walker_cache.tags.avg_refs          nan                       # Average number of references to valid blocks.
system.cpu.dtb_walker_cache.tags.warmup_cycle            0                       # Cycle when the warmup percentage was hit.
system.cpu.dtb_walker_cache.tags.tag_accesses            0                       # Number of tag accesses
system.cpu.dtb_walker_cache.tags.data_accesses            0                       # Number of data accesses
system.cpu.dcache.pwrStateResidencyTicks::UNDEFINED  35159037000                       # Cumulative time (in ticks) in various power states
system.cpu.dcache.demand_hits::.cpu.data      5215783                       # number of demand (read+write) hits
system.cpu.dcache.demand_hits::total          5215783                       # number of demand (read+write) hits
system.cpu.dcache.overall_hits::.cpu.data      5216005                       # number of overall hits
system.cpu.dcache.overall_hits::total         5216005                       # number of overall hits
system.cpu.dcache.demand_misses::.cpu.data         3037                       # number of demand (read+write) misses
system.cpu.dcache.demand_misses::total           3037                       # number of demand (read+write) misses
system.cpu.dcache.overall_misses::.cpu.data         3263                       # number of overall misses
system.cpu.dcache.overall_misses::total          3263                       # number of overall misses
system.cpu.dcache.demand_miss_latency::.cpu.data    190713000                       # number of demand (read+write) miss cycles
system.cpu.dcache.demand_miss_latency::total    190713000                       # number of demand (read+write) miss cycles
system.cpu.dcache.overall_miss_latency::.cpu.data    190713000                       # number of overall miss cycles
system.cpu.dcache.overall_miss_latency::total    190713000                       # number of overall miss cycles
system.cpu.dcache.demand_accesses::.cpu.data      5218820                       # number of demand (read+write) accesses
system.cpu.dcache.demand_accesses::total      5218820                       # number of demand (read+write) accesses
system.cpu.dcache.overall_accesses::.cpu.data      5219268                       # number of overall (read+write) accesses
system.cpu.dcache.overall_accesses::total      5219268                       # number of overall (read+write) accesses
system.cpu.dcache.demand_miss_rate::.cpu.data     0.000582                       # miss rate for demand accesses
system.cpu.dcache.demand_miss_rate::total     0.000582                       # miss rate for demand accesses
system.cpu.dcache.overall_miss_rate::.cpu.data     0.000625                       # miss rate for overall accesses
system.cpu.dcache.overall_miss_rate::total     0.000625                       # miss rate for overall accesses
system.cpu.dcache.demand_avg_miss_latency::.cpu.data 62796.509714                       # average overall miss latency
system.cpu.dcache.demand_avg_miss_latency::total 62796.509714                       # average overall miss latency
system.cpu.dcache.overall_avg_miss_latency::.cpu.data 58447.134539                       # average overall miss latency
system.cpu.dcache.overall_avg_miss_latency::total 58447.134539                       # average overall miss latency
system.cpu.dcache.blocked_cycles::no_mshrs            0                       # number of cycles access was blocked
system.cpu.dcache.blocked_cycles::no_targets            0                       # number of cycles access was blocked
system.cpu.dcache.blocked::no_mshrs                 0                       # number of cycles access was blocked
system.cpu.dcache.blocked::no_targets               0                       # number of cycles access was blocked
system.cpu.dcache.avg_blocked_cycles::no_mshrs          nan                       # average number of cycles each access was blocked
system.cpu.dcache.avg_blocked_cycles::no_targets          nan                       # average number of cycles each access was blocked
system.cpu.dcache.writebacks::.writebacks         1252                       # number of writebacks
system.cpu.dcache.writebacks::total              1252                       # number of writebacks
system.cpu.dcache.demand_mshr_misses::.cpu.data         3037                       # number of demand (read+write) MSHR misses
system.cpu.dcache.demand_mshr_misses::total         3037                       # number of demand (read+write) MSHR misses
system.cpu.dcache.overall_mshr_misses::.cpu.data         3151                       # number of overall MSHR misses
system.cpu.dcache.overall_mshr_misses::total         3151                       # number of overall MSHR misses
system.cpu.dcache.demand_mshr_miss_latency::.cpu.data    187676000                       # number of demand (read+write) MSHR miss cycles
system.cpu.dcache.demand_mshr_miss_latency::total    187676000                       # number of demand (read+write) MSHR miss cycles
system.cpu.dcache.overall_mshr_miss_latency::.cpu.data    195417000                       # number of overall MSHR miss cycles
system.cpu.dcache.overall_mshr_miss_latency::total    195417000                       # number of overall MSHR miss cycles
system.cpu.dcache.demand_mshr_miss_rate::.cpu.data     0.000582                       # mshr miss rate for demand accesses
system.cpu.dcache.demand_mshr_miss_rate::total     0.000582                       # mshr miss rate for demand accesses
system.cpu.dcache.overall_mshr_miss_rate::.cpu.data     0.000604                       # mshr miss rate for overall accesses
system.cpu.dcache.overall_mshr_miss_rate::total     0.000604                       # mshr miss rate for overall accesses
system.cpu.dcache.demand_avg_mshr_miss_latency::.cpu.data 61796.509714                       # average overall mshr miss latency
system.cpu.dcache.demand_avg_mshr_miss_latency::total 61796.509714                       # average overall mshr miss latency
system.cpu.dcache.overall_avg_mshr_miss_latency::.cpu.data 62017.454776                       # average overall mshr miss latency
system.cpu.dcache.overall_avg_mshr_miss_latency::total 62017.454776                       # average overall mshr miss latency
system.cpu.dcache.replacements                   3119                       # number of replacements
system.cpu.dcache.ReadReq_hits::.cpu.data      5150388                       # number of ReadReq hits
system.cpu.dcache.ReadReq_hits::total         5150388                       # number of ReadReq hits
system.cpu.dcache.ReadReq_misses::.cpu.data         2360                       # number of ReadReq misses
system.cpu.dcache.ReadReq_misses::total          2360                       # number of ReadReq misses
system.cpu.dcache.ReadReq_miss_latency::.cpu.data    156968500                       # number of ReadReq miss cycles
system.cpu.dcache.ReadReq_miss_latency::total    156968500                       # number of ReadReq miss cycles
system.cpu.dcache.ReadReq_accesses::.cpu.data      5152748                       # number of ReadReq accesses(hits+misses)
system.cpu.dcache.ReadReq_accesses::total      5152748                       # number of ReadReq accesses(hits+misses)
system.cpu.dcache.ReadReq_miss_rate::.cpu.data     0.000458                       # miss rate for ReadReq accesses
system.cpu.dcache.ReadReq_miss_rate::total     0.000458                       # miss rate for ReadReq accesses
system.cpu.dcache.ReadReq_avg_miss_latency::.cpu.data 66512.076271                       # average ReadReq miss latency
system.cpu.dcache.ReadReq_avg_miss_latency::total 66512.076271                       # average ReadReq miss latency
system.cpu.dcache.ReadReq_mshr_misses::.cpu.data         2360                       # number of ReadReq MSHR misses
system.cpu.dcache.ReadReq_mshr_misses::total         2360                       # number of ReadReq MSHR misses
system.cpu.dcache.ReadReq_mshr_miss_latency::.cpu.data    154608500                       # number of ReadReq MSHR miss cycles
system.cpu.dcache.ReadReq_mshr_miss_latency::total    154608500                       # number of ReadReq MSHR miss cycles
system.cpu.dcache.ReadReq_mshr_miss_rate::.cpu.data     0.000458                       # mshr miss rate for ReadReq accesses
system.cpu.dcache.ReadReq_mshr_miss_rate::total     0.000458                       # mshr miss rate for ReadReq accesses
system.cpu.dcache.ReadReq_avg_mshr_miss_latency::.cpu.data 65512.076271                       # average ReadReq mshr miss latency
system.cpu.dcache.ReadReq_avg_mshr_miss_latency::total 65512.076271                       # average ReadReq mshr miss latency
system.cpu.dcache.WriteReq_hits::.cpu.data        65395                       # number of WriteReq hits
system.cpu.dcache.WriteReq_hits::total          65395                       # number of WriteReq hits
system.cpu.dcache.WriteReq_misses::.cpu.data          677                       # number of WriteReq misses
system.cpu.dcache.WriteReq_misses::total          677                       # number of WriteReq misses
system.cpu.dcache.WriteReq_miss_latency::.cpu.data     33744500                       # number of WriteReq miss cycles
system.cpu.dcache.WriteReq_miss_latency::total     33744500                       # number of WriteReq miss cycles
system.cpu.dcache.WriteReq_accesses::.cpu.data        66072                       # number of WriteReq accesses(hits+misses)
system.cpu.dcache.WriteReq_accesses::total        66072                       # number of WriteReq accesses(hits+misses)
system.cpu.dcache.WriteReq_miss_rate::.cpu.data     0.010246                       # miss rate for WriteReq accesses
system.cpu.dcache.WriteReq_miss_rate::total     0.010246                       # miss rate for WriteReq accesses
system.cpu.dcache.WriteReq_avg_miss_latency::.cpu.data 49844.165436                       # average WriteReq miss latency
system.cpu.dcache.WriteReq_avg_miss_latency::total 49844.165436                       # average WriteReq miss latency
system.cpu.dcache.WriteReq_mshr_misses::.cpu.data          677                       # number of WriteReq MSHR misses
system.cpu.dcache.WriteReq_mshr_misses::total          677                       # number of WriteReq MSHR misses
system.cpu.dcache.WriteReq_mshr_miss_latency::.cpu.data     33067500                       # number of WriteReq MSHR miss cycles
system.cpu.dcache.WriteReq_mshr_miss_latency::total     33067500                       # number of WriteReq MSHR miss cycles
system.cpu.dcache.WriteReq_mshr_miss_rate::.cpu.data     0.010246                       # mshr miss rate for WriteReq accesses
system.cpu.dcache.WriteReq_mshr_miss_rate::total     0.010246                       # mshr miss rate for WriteReq accesses
system.cpu.dcache.WriteReq_avg_mshr_miss_latency::.cpu.data 48844.165436                       # average WriteReq mshr miss latency
system.cpu.dcache.WriteReq_avg_mshr_miss_latency::total 48844.165436                       # average WriteReq mshr miss latency
system.cpu.dcache.SoftPFReq_hits::.cpu.data          222                       # number of SoftPFReq hits
system.cpu.dcache.SoftPFReq_hits::total           222                       # number of SoftPFReq hits
system.cpu.dcache.SoftPFReq_misses::.cpu.data          226                       # number of SoftPFReq misses
system.cpu.dcache.SoftPFReq_misses::total          226                       # number of SoftPFReq misses
system.cpu.dcache.SoftPFReq_accesses::.cpu.data          448                       # number of SoftPFReq accesses(hits+misses)
system.cpu.dcache.SoftPFReq_accesses::total          448                       # number of SoftPFReq accesses(hits+misses)
system.cpu.dcache.SoftPFReq_miss_rate::.cpu.data     0.504464                       # miss rate for SoftPFReq accesses
system.cpu.dcache.SoftPFReq_miss_rate::total     0.504464                       # miss rate for SoftPFReq accesses
system.cpu.dcache.SoftPFReq_mshr_misses::.cpu.data          114                       # number of SoftPFReq MSHR misses
system.cpu.dcache.SoftPFReq_mshr_misses::total          114                       # number of SoftPFReq MSHR misses
system.cpu.dcache.SoftPFReq_mshr_miss_latency::.cpu.data      7741000                       # number of SoftPFReq MSHR miss cycles
system.cpu.dcache.SoftPFReq_mshr_miss_latency::total      7741000                       # number of SoftPFReq MSHR miss cycles
system.cpu.dcache.SoftPFReq_mshr_miss_rate::.cpu.data     0.254464                       # mshr miss rate for SoftPFReq accesses
system.cpu.dcache.SoftPFReq_mshr_miss_rate::total     0.254464                       # mshr miss rate for SoftPFReq accesses
system.cpu.dcache.SoftPFReq_avg_mshr_miss_latency::.cpu.data 67903.508772                       # average SoftPFReq mshr miss latency
system.cpu.dcache.SoftPFReq_avg_mshr_miss_latency::total 67903.508772                       # average SoftPFReq mshr miss latency
system.cpu.dcache.tags.pwrStateResidencyTicks::UNDEFINED  35159037000                       # Cumulative time (in ticks) in various power states
system.cpu.dcache.tags.tagsinuse            31.996746                       # Cycle average of tags in use
system.cpu.dcache.tags.total_refs             5219156                       # Total number of references to valid blocks.
system.cpu.dcache.tags.sampled_refs              3151                       # Sample count of references to valid blocks.
system.cpu.dcache.tags.avg_refs           1656.349096                       # Average number of references to valid blocks.
system.cpu.dcache.tags.warmup_cycle            162000                       # Cycle when the warmup percentage was hit.
system.cpu.dcache.tags.occ_blocks::.cpu.data    31.996746                       # Average occupied blocks per requestor
system.cpu.dcache.tags.occ_percent::.cpu.data     0.999898                       # Average percentage of cache occupancy
system.cpu.dcache.tags.occ_percent::total     0.999898                       # Average percentage of cache occupancy
system.cpu.dcache.tags.occ_task_id_blocks::1024           32                       # Occupied blocks per task id
system.cpu.dcache.tags.age_task_id_blocks_1024::0           24                       # Occupied blocks per task id
system.cpu.dcache.tags.age_task_id_blocks_1024::1            8                       # Occupied blocks per task id
system.cpu.dcache.tags.occ_task_id_percent::1024            1                       # Percentage of cache occupancy per task id
system.cpu.dcache.tags.tag_accesses          20880223                       # Number of tag accesses
system.cpu.dcache.tags.data_accesses         20880223                       # Number of data accesses

---------- End Simulation Statistics   ----------
