
---------- Begin Simulation Statistics ----------
final_tick                                57055078000                       # Number of ticks from beginning of simulation (restored from checkpoints and never reset)
host_inst_rate                                 823263                       # Simulator instruction rate (inst/s)
host_mem_usage                                 684548                       # Number of bytes of host memory used
host_op_rate                                  1456807                       # Simulator op (including micro ops) rate (op/s)
host_seconds                                    29.53                       # Real time elapsed on the host
host_tick_rate                             1932333371                       # Simulator tick rate (ticks/s)
sim_freq                                 1000000000000                       # Frequency of simulated ticks
sim_insts                                    24307985                       # Number of instructions simulated
sim_ops                                      43014418                       # Number of ops (including micro ops) simulated
sim_seconds                                  0.057055                       # Number of seconds simulated
sim_ticks                                 57055078000                       # Number of ticks simulated
system.cpu.Branches                           1784595                       # Number of branches fetched
system.cpu.committedInsts                    24307985                       # Number of instructions committed
system.cpu.committedOps                      43014418                       # Number of ops (including micro ops) committed
system.cpu.dtb.rdAccesses                     5153196                       # TLB accesses on read requests
system.cpu.dtb.rdMisses                            16                       # TLB misses on read requests
system.cpu.dtb.wrAccesses                       66968                       # TLB accesses on write requests
system.cpu.dtb.wrMisses                            16                       # TLB misses on write requests
system.cpu.idle_fraction                     0.000000                       # Percentage of idle cycles
system.cpu.itb.rdAccesses                           0                       # TLB accesses on read requests
system.cpu.itb.rdMisses                             0                       # TLB misses on read requests
system.cpu.itb.wrAccesses                    29674979                       # TLB accesses on write requests
system.cpu.itb.wrMisses                            55                       # TLB misses on write requests
system.cpu.not_idle_fraction                 1.000000                       # Percentage of non-idle cycles
system.cpu.numCycles                        114110156                       # number of cpu cycles simulated
system.cpu.numWorkItemsCompleted                    0                       # number of work items this cpu completed
system.cpu.numWorkItemsStarted                      0                       # number of work items this cpu started
system.cpu.num_busy_cycles               114110155.998000                       # Number of busy cycles
system.cpu.num_cc_register_reads              9219669                       # number of times the CC registers were read
system.cpu.num_cc_register_writes            23716538                       # number of times the CC registers were written
system.cpu.num_conditional_control_insts      1772651                       # number of instructions that are conditional controls
system.cpu.num_fp_alu_accesses                  88162                       # Number of float alu accesses
system.cpu.num_fp_insts                         88162                       # number of float instructions
system.cpu.num_fp_register_reads               138086                       # number of times the floating registers were read
system.cpu.num_fp_register_writes               76741                       # number of times the floating registers were written
system.cpu.num_func_calls                        3646                       # number of times a function call or return occured
system.cpu.num_idle_cycles                   0.002000                       # Number of idle cycles
system.cpu.num_int_alu_accesses              42831872                       # Number of integer alu accesses
system.cpu.num_int_insts                     42831872                       # number of integer instructions
system.cpu.num_int_register_reads            84417793                       # number of times the integer registers were read
system.cpu.num_int_register_writes           44342158                       # number of times the integer registers were written
system.cpu.num_load_insts                     5153085                       # Number of load instructions
system.cpu.num_mem_refs                       5219940                       # number of memory refs
system.cpu.num_store_insts                      66855                       # Number of store instructions
system.cpu.num_vec_alu_accesses                     0                       # Number of vector alu accesses
system.cpu.num_vec_insts                            0                       # number of vector instructions
system.cpu.num_vec_register_reads                   0                       # number of times the vector registers were read
system.cpu.num_vec_register_writes                  0                       # number of times the vector registers were written
system.cpu.op_class::No_OpClass                123871      0.29%      0.29% # Class of executed instruction
system.cpu.op_class::IntAlu                  34300206     79.74%     80.03% # Class of executed instruction
system.cpu.op_class::IntMult                  3272661      7.61%     87.64% # Class of executed instruction
system.cpu.op_class::IntDiv                     50585      0.12%     87.75% # Class of executed instruction
system.cpu.op_class::FloatAdd                    8129      0.02%     87.77% # Class of executed instruction
system.cpu.op_class::FloatCmp                       0      0.00%     87.77% # Class of executed instruction
system.cpu.op_class::FloatCvt                       0      0.00%     87.77% # Class of executed instruction
system.cpu.op_class::FloatMult                      0      0.00%     87.77% # Class of executed instruction
system.cpu.op_class::FloatMultAcc                   0      0.00%     87.77% # Class of executed instruction
system.cpu.op_class::FloatDiv                       0      0.00%     87.77% # Class of executed instruction
system.cpu.op_class::FloatMisc                      0      0.00%     87.77% # Class of executed instruction
system.cpu.op_class::FloatSqrt                      0      0.00%     87.77% # Class of executed instruction
system.cpu.op_class::SimdAdd                      374      0.00%     87.77% # Class of executed instruction
system.cpu.op_class::SimdAddAcc                     0      0.00%     87.77% # Class of executed instruction
system.cpu.op_class::SimdAlu                     4064      0.01%     87.78% # Class of executed instruction
system.cpu.op_class::SimdCmp                        0      0.00%     87.78% # Class of executed instruction
system.cpu.op_class::SimdCvt                      128      0.00%     87.78% # Class of executed instruction
system.cpu.op_class::SimdMisc                    5418      0.01%     87.80% # Class of executed instruction
system.cpu.op_class::SimdMult                       0      0.00%     87.80% # Class of executed instruction
system.cpu.op_class::SimdMultAcc                    0      0.00%     87.80% # Class of executed instruction
system.cpu.op_class::SimdShift                    186      0.00%     87.80% # Class of executed instruction
system.cpu.op_class::SimdShiftAcc                   0      0.00%     87.80% # Class of executed instruction
system.cpu.op_class::SimdDiv                        0      0.00%     87.80% # Class of executed instruction
system.cpu.op_class::SimdSqrt                       0      0.00%     87.80% # Class of executed instruction
system.cpu.op_class::SimdFloatAdd               12512      0.03%     87.82% # Class of executed instruction
system.cpu.op_class::SimdFloatAlu                   0      0.00%     87.82% # Class of executed instruction
system.cpu.op_class::SimdFloatCmp                   0      0.00%     87.82% # Class of executed instruction
system.cpu.op_class::SimdFloatCvt                4945      0.01%     87.84% # Class of executed instruction
system.cpu.op_class::SimdFloatDiv                 738      0.00%     87.84% # Class of executed instruction
system.cpu.op_class::SimdFloatMisc                  0      0.00%     87.84% # Class of executed instruction
system.cpu.op_class::SimdFloatMult              11557      0.03%     87.86% # Class of executed instruction
system.cpu.op_class::SimdFloatMultAcc               0      0.00%     87.86% # Class of executed instruction
system.cpu.op_class::SimdFloatSqrt                  0      0.00%     87.86% # Class of executed instruction
system.cpu.op_class::SimdReduceAdd                  0      0.00%     87.86% # Class of executed instruction
system.cpu.op_class::SimdReduceAlu                  0      0.00%     87.86% # Class of executed instruction
system.cpu.op_class::SimdReduceCmp                  0      0.00%     87.86% # Class of executed instruction
system.cpu.op_class::SimdFloatReduceAdd             0      0.00%     87.86% # Class of executed instruction
system.cpu.op_class::SimdFloatReduceCmp             0      0.00%     87.86% # Class of executed instruction
system.cpu.op_class::SimdAes                        0      0.00%     87.86% # Class of executed instruction
system.cpu.op_class::SimdAesMix                     0      0.00%     87.86% # Class of executed instruction
system.cpu.op_class::SimdSha1Hash                   0      0.00%     87.86% # Class of executed instruction
system.cpu.op_class::SimdSha1Hash2                  0      0.00%     87.86% # Class of executed instruction
system.cpu.op_class::SimdSha256Hash                 0      0.00%     87.86% # Class of executed instruction
system.cpu.op_class::SimdSha256Hash2                0      0.00%     87.86% # Class of executed instruction
system.cpu.op_class::SimdShaSigma2                  0      0.00%     87.86% # Class of executed instruction
system.cpu.op_class::SimdShaSigma3                  0      0.00%     87.86% # Class of executed instruction
system.cpu.op_class::SimdPredAlu                    0      0.00%     87.86% # Class of executed instruction
system.cpu.op_class::MemRead                  5134419     11.94%     99.80% # Class of executed instruction
system.cpu.op_class::MemWrite                   62132      0.14%     99.95% # Class of executed instruction
system.cpu.op_class::FloatMemRead               18666      0.04%     99.99% # Class of executed instruction
system.cpu.op_class::FloatMemWrite               4723      0.01%    100.00% # Class of executed instruction
system.cpu.op_class::IprAccess                      0      0.00%    100.00% # Class of executed instruction
system.cpu.op_class::InstPrefetch                   0      0.00%    100.00% # Class of executed instruction
system.cpu.op_class::total                   43015314                       # Class of executed instruction
system.cpu.workload.numSyscalls                    17                       # Number of system calls
system.membus.snoop_filter.hit_multi_requests            1                       # Number of requests hitting in the snoop filter with multiple (>1) holders of the requested data.
system.membus.snoop_filter.hit_multi_snoops            0                       # Number of snoops hitting in the snoop filter with multiple (>1) holders of the requested data.
system.membus.snoop_filter.hit_single_requests       446655                       # Number of requests hitting in the snoop filter with a single holder of the requested data.
system.membus.snoop_filter.hit_single_snoops            0                       # Number of snoops hitting in the snoop filter with a single holder of the requested data.
system.membus.snoop_filter.tot_requests        893374                       # Total number of requests made to the snoop filter.
system.membus.snoop_filter.tot_snoops               0                       # Total number of snoops made to the snoop filter.
system.membus.pwrStateResidencyTicks::UNDEFINED  57055078000                       # Cumulative time (in ticks) in various power states
system.membus.trans_dist::ReadResp             439979                       # Transaction distribution
system.membus.trans_dist::WritebackDirty        14899                       # Transaction distribution
system.membus.trans_dist::WritebackClean         1371                       # Transaction distribution
system.membus.trans_dist::CleanEvict           430385                       # Transaction distribution
system.membus.trans_dist::ReadExReq              6740                       # Transaction distribution
system.membus.trans_dist::ReadExResp             6740                       # Transaction distribution
system.membus.trans_dist::ReadCleanReq           1403                       # Transaction distribution
system.membus.trans_dist::ReadSharedReq        438576                       # Transaction distribution
system.membus.pkt_count_system.cpu.icache.mem_side::system.mem_ctrls.port         4177                       # Packet count per connected master and slave (bytes)
system.membus.pkt_count_system.cpu.icache.mem_side::total         4177                       # Packet count per connected master and slave (bytes)
system.membus.pkt_count_system.cpu.dcache.mem_side::system.mem_ctrls.port      1335916                       # Packet count per connected master and slave (bytes)
system.membus.pkt_count_system.cpu.dcache.mem_side::total      1335916                       # Packet count per connected master and slave (bytes)
system.membus.pkt_count::total                1340093                       # Packet count per connected master and slave (bytes)
system.membus.pkt_size_system.cpu.icache.mem_side::system.mem_ctrls.port       355072                       # Cumulative packet size per connected master and slave (bytes)
system.membus.pkt_size_system.cpu.icache.mem_side::total       355072                       # Cumulative packet size per connected master and slave (bytes)
system.membus.pkt_size_system.cpu.dcache.mem_side::system.mem_ctrls.port     58907520                       # Cumulative packet size per connected master and slave (bytes)
system.membus.pkt_size_system.cpu.dcache.mem_side::total     58907520                       # Cumulative packet size per connected master and slave (bytes)
system.membus.pkt_size::total                59262592                       # Cumulative packet size per connected master and slave (bytes)
system.membus.snoops                                0                       # Total snoops (count)
system.membus.snoopTraffic                          0                       # Total snoop traffic (bytes)
system.membus.snoop_fanout::samples            446719                       # Request fanout histogram
system.membus.snoop_fanout::mean             0.000002                       # Request fanout histogram
system.membus.snoop_fanout::stdev            0.001496                       # Request fanout histogram
system.membus.snoop_fanout::underflows              0      0.00%      0.00% # Request fanout histogram
system.membus.snoop_fanout::0                  446718    100.00%    100.00% # Request fanout histogram
system.membus.snoop_fanout::1                       1      0.00%    100.00% # Request fanout histogram
system.membus.snoop_fanout::2                       0      0.00%    100.00% # Request fanout histogram
system.membus.snoop_fanout::3                       0      0.00%    100.00% # Request fanout histogram
system.membus.snoop_fanout::4                       0      0.00%    100.00% # Request fanout histogram
system.membus.snoop_fanout::overflows               0      0.00%    100.00% # Request fanout histogram
system.membus.snoop_fanout::min_value               0                       # Request fanout histogram
system.membus.snoop_fanout::max_value               1                       # Request fanout histogram
system.membus.snoop_fanout::total              446719                       # Request fanout histogram
system.membus.reqLayer2.occupancy          1023595000                       # Layer occupancy (ticks)
system.membus.reqLayer2.utilization               1.8                       # Layer utilization (%)
system.membus.respLayer1.occupancy           12879000                       # Layer occupancy (ticks)
system.membus.respLayer1.utilization              0.0                       # Layer utilization (%)
system.membus.respLayer2.occupancy         4099431750                       # Layer occupancy (ticks)
system.membus.respLayer2.utilization              7.2                       # Layer utilization (%)
system.voltage_domain.voltage                       1                       # Voltage in Volts
system.clk_domain.clock                          1000                       # Clock period in ticks
system.cpu_voltage_domain.voltage                   1                       # Voltage in Volts
system.mem_ctrls.pwrStateResidencyTicks::UNDEFINED  57055078000                       # Cumulative time (in ticks) in various power states
system.mem_ctrls.bytes_read::.cpu.inst         179584                       # Number of bytes read from this memory
system.mem_ctrls.bytes_read::.cpu.data       57000448                       # Number of bytes read from this memory
system.mem_ctrls.bytes_read::total           57180032                       # Number of bytes read from this memory
system.mem_ctrls.bytes_inst_read::.cpu.inst       179584                       # Number of instructions bytes read from this memory
system.mem_ctrls.bytes_inst_read::total        179584                       # Number of instructions bytes read from this memory
system.mem_ctrls.bytes_written::.writebacks      1907072                       # Number of bytes written to this memory
system.mem_ctrls.bytes_written::total         1907072                       # Number of bytes written to this memory
system.mem_ctrls.num_reads::.cpu.inst            1403                       # Number of read requests responded to by this memory
system.mem_ctrls.num_reads::.cpu.data          445316                       # Number of read requests responded to by this memory
system.mem_ctrls.num_reads::total              446719                       # Number of read requests responded to by this memory
system.mem_ctrls.num_writes::.writebacks        14899                       # Number of write requests responded to by this memory
system.mem_ctrls.num_writes::total              14899                       # Number of write requests responded to by this memory
system.mem_ctrls.bw_read::.cpu.inst           3147555                       # Total read bandwidth from this memory (bytes/s)
system.mem_ctrls.bw_read::.cpu.data         999042504                       # Total read bandwidth from this memory (bytes/s)
system.mem_ctrls.bw_read::total            1002190059                       # Total read bandwidth from this memory (bytes/s)
system.mem_ctrls.bw_inst_read::.cpu.inst      3147555                       # Instruction read bandwidth from this memory (bytes/s)
system.mem_ctrls.bw_inst_read::total          3147555                       # Instruction read bandwidth from this memory (bytes/s)
system.mem_ctrls.bw_write::.writebacks       33425105                       # Write bandwidth from this memory (bytes/s)
system.mem_ctrls.bw_write::total             33425105                       # Write bandwidth from this memory (bytes/s)
system.mem_ctrls.bw_total::.writebacks       33425105                       # Total bandwidth to/from this memory (bytes/s)
system.mem_ctrls.bw_total::.cpu.inst          3147555                       # Total bandwidth to/from this memory (bytes/s)
system.mem_ctrls.bw_total::.cpu.data        999042504                       # Total bandwidth to/from this memory (bytes/s)
system.mem_ctrls.bw_total::total           1035615165                       # Total bandwidth to/from this memory (bytes/s)
system.mem_ctrls.avgPriority_.writebacks::samples      3422.00                       # Average QoS priority value for accepted requests
system.mem_ctrls.avgPriority_.cpu.inst::samples      1359.00                       # Average QoS priority value for accepted requests
system.mem_ctrls.avgPriority_.cpu.data::samples    643525.00                       # Average QoS priority value for accepted requests
system.mem_ctrls.priorityMinLatency      0.000000018750                       # per QoS priority minimum request to response latency (s)
system.mem_ctrls.priorityMaxLatency      0.057488865750                       # per QoS priority maximum request to response latency (s)
system.mem_ctrls.numReadWriteTurnArounds          208                       # Number of turnarounds from READ to WRITE
system.mem_ctrls.numWriteReadTurnArounds          208                       # Number of turnarounds from WRITE to READ
system.mem_ctrls.numStayReadState              998049                       # Number of times bus staying in READ state
system.mem_ctrls.numStayWriteState               3191                       # Number of times bus staying in WRITE state
system.mem_ctrls.readReqs                      446719                       # Number of read requests accepted
system.mem_ctrls.writeReqs                      16269                       # Number of write requests accepted
system.mem_ctrls.readBursts                    893438                       # Number of DRAM read bursts, including those serviced by the write queue
system.mem_ctrls.writeBursts                    32538                       # Number of DRAM write bursts, including those merged in the write queue
system.mem_ctrls.servicedByWrQ                 248554                       # Number of DRAM read bursts serviced by the write queue
system.mem_ctrls.mergedWrBursts                 29116                       # Number of DRAM write bursts merged with an existing one
system.mem_ctrls.neitherReadNorWriteReqs            0                       # Number of requests that are neither read nor write
system.mem_ctrls.perBankRdBursts::0               194                       # Per bank write bursts
system.mem_ctrls.perBankRdBursts::1                38                       # Per bank write bursts
system.mem_ctrls.perBankRdBursts::2                14                       # Per bank write bursts
system.mem_ctrls.perBankRdBursts::3               188                       # Per bank write bursts
system.mem_ctrls.perBankRdBursts::4               655                       # Per bank write bursts
system.mem_ctrls.perBankRdBursts::5               272                       # Per bank write bursts
system.mem_ctrls.perBankRdBursts::6               272                       # Per bank write bursts
system.mem_ctrls.perBankRdBursts::7            405763                       # Per bank write bursts
system.mem_ctrls.perBankRdBursts::8              1308                       # Per bank write bursts
system.mem_ctrls.perBankRdBursts::9              3174                       # Per bank write bursts
system.mem_ctrls.perBankRdBursts::10           213520                       # Per bank write bursts
system.mem_ctrls.perBankRdBursts::11            19284                       # Per bank write bursts
system.mem_ctrls.perBankRdBursts::12               68                       # Per bank write bursts
system.mem_ctrls.perBankRdBursts::13               76                       # Per bank write bursts
system.mem_ctrls.perBankRdBursts::14               10                       # Per bank write bursts
system.mem_ctrls.perBankRdBursts::15               48                       # Per bank write bursts
system.mem_ctrls.perBankWrBursts::0               162                       # Per bank write bursts
system.mem_ctrls.perBankWrBursts::1                38                       # Per bank write bursts
system.mem_ctrls.perBankWrBursts::2                 0                       # Per bank write bursts
system.mem_ctrls.perBankWrBursts::3               139                       # Per bank write bursts
system.mem_ctrls.perBankWrBursts::4               258                       # Per bank write bursts
system.mem_ctrls.perBankWrBursts::5               157                       # Per bank write bursts
system.mem_ctrls.perBankWrBursts::6               220                       # Per bank write bursts
system.mem_ctrls.perBankWrBursts::7               160                       # Per bank write bursts
system.mem_ctrls.perBankWrBursts::8                16                       # Per bank write bursts
system.mem_ctrls.perBankWrBursts::9               326                       # Per bank write bursts
system.mem_ctrls.perBankWrBursts::10             1062                       # Per bank write bursts
system.mem_ctrls.perBankWrBursts::11              664                       # Per bank write bursts
system.mem_ctrls.perBankWrBursts::12               60                       # Per bank write bursts
system.mem_ctrls.perBankWrBursts::13               76                       # Per bank write bursts
system.mem_ctrls.perBankWrBursts::14               10                       # Per bank write bursts
system.mem_ctrls.perBankWrBursts::15               50                       # Per bank write bursts
system.mem_ctrls.avgRdQLen                       2.00                       # Average read queue length when enqueuing
system.mem_ctrls.avgWrQLen                      25.26                       # Average write queue length when enqueuing
system.mem_ctrls.totQLat                   5147716500                       # Total ticks spent queuing
system.mem_ctrls.totBusLat                 3224420000                       # Total ticks spent in databus transfers
system.mem_ctrls.totMemAccLat             17239291500                       # Total ticks spent from burst creation until serviced by the DRAM
system.mem_ctrls.avgQLat                      7982.39                       # Average queueing delay per DRAM burst
system.mem_ctrls.avgBusLat                    5000.00                       # Average bus latency per DRAM burst
system.mem_ctrls.avgMemAccLat                26732.39                       # Average memory access latency per DRAM burst
system.mem_ctrls.numRdRetry                         0                       # Number of times read queue was full causing retry
system.mem_ctrls.numWrRetry                         0                       # Number of times write queue was full causing retry
system.mem_ctrls.readRowHits                   597012                       # Number of row buffer hits during reads
system.mem_ctrls.writeRowHits                    3029                       # Number of row buffer hits during writes
system.mem_ctrls.readRowHitRate                 92.58                       # Row buffer hit rate for reads
system.mem_ctrls.writeRowHitRate                88.52                       # Row buffer hit rate for writes
system.mem_ctrls.readPktSize::0                     0                       # Read request sizes (log2)
system.mem_ctrls.readPktSize::1                     0                       # Read request sizes (log2)
system.mem_ctrls.readPktSize::2                     0                       # Read request sizes (log2)
system.mem_ctrls.readPktSize::3                     0                       # Read request sizes (log2)
system.mem_ctrls.readPktSize::4                     0                       # Read request sizes (log2)
system.mem_ctrls.readPktSize::5                     0                       # Read request sizes (log2)
system.mem_ctrls.readPktSize::6                893438                       # Read request sizes (log2)
system.mem_ctrls.writePktSize::0                    0                       # Write request sizes (log2)
system.mem_ctrls.writePktSize::1                    0                       # Write request sizes (log2)
system.mem_ctrls.writePktSize::2                    0                       # Write request sizes (log2)
system.mem_ctrls.writePktSize::3                    0                       # Write request sizes (log2)
system.mem_ctrls.writePktSize::4                    0                       # Write request sizes (log2)
system.mem_ctrls.writePktSize::5                    0                       # Write request sizes (log2)
system.mem_ctrls.writePktSize::6                32538                       # Write request sizes (log2)
system.mem_ctrls.rdQLenPdf::0                  322383                       # What read queue length does an incoming req see
system.mem_ctrls.rdQLenPdf::1                  322381                       # What read queue length does an incoming req see
system.mem_ctrls.rdQLenPdf::2                      60                       # What read queue length does an incoming req see
system.mem_ctrls.rdQLenPdf::3                      60                       # What read queue length does an incoming req see
system.mem_ctrls.rdQLenPdf::4                       0                       # What read queue length does an incoming req see
system.mem_ctrls.rdQLenPdf::5                       0                       # What read queue length does an incoming req see
system.mem_ctrls.rdQLenPdf::6                       0                       # What read queue length does an incoming req see
system.mem_ctrls.rdQLenPdf::7                       0                       # What read queue length does an incoming req see
system.mem_ctrls.rdQLenPdf::8                       0                       # What read queue length does an incoming req see
system.mem_ctrls.rdQLenPdf::9                       0                       # What read queue length does an incoming req see
system.mem_ctrls.rdQLenPdf::10                      0                       # What read queue length does an incoming req see
system.mem_ctrls.rdQLenPdf::11                      0                       # What read queue length does an incoming req see
system.mem_ctrls.rdQLenPdf::12                      0                       # What read queue length does an incoming req see
system.mem_ctrls.rdQLenPdf::13                      0                       # What read queue length does an incoming req see
system.mem_ctrls.rdQLenPdf::14                      0                       # What read queue length does an incoming req see
system.mem_ctrls.rdQLenPdf::15                      0                       # What read queue length does an incoming req see
system.mem_ctrls.rdQLenPdf::16                      0                       # What read queue length does an incoming req see
system.mem_ctrls.rdQLenPdf::17                      0                       # What read queue length does an incoming req see
system.mem_ctrls.rdQLenPdf::18                      0                       # What read queue length does an incoming req see
system.mem_ctrls.rdQLenPdf::19                      0                       # What read queue length does an incoming req see
system.mem_ctrls.rdQLenPdf::20                      0                       # What read queue length does an incoming req see
system.mem_ctrls.rdQLenPdf::21                      0                       # What read queue length does an incoming req see
system.mem_ctrls.rdQLenPdf::22                      0                       # What read queue length does an incoming req see
system.mem_ctrls.rdQLenPdf::23                      0                       # What read queue length does an incoming req see
system.mem_ctrls.rdQLenPdf::24                      0                       # What read queue length does an incoming req see
system.mem_ctrls.rdQLenPdf::25                      0                       # What read queue length does an incoming req see
system.mem_ctrls.rdQLenPdf::26                      0                       # What read queue length does an incoming req see
system.mem_ctrls.rdQLenPdf::27                      0                       # What read queue length does an incoming req see
system.mem_ctrls.rdQLenPdf::28                      0                       # What read queue length does an incoming req see
system.mem_ctrls.rdQLenPdf::29                      0                       # What read queue length does an incoming req see
system.mem_ctrls.rdQLenPdf::30                      0                       # What read queue length does an incoming req see
system.mem_ctrls.rdQLenPdf::31                      0                       # What read queue length does an incoming req see
system.mem_ctrls.wrQLenPdf::0                       1                       # What write queue length does an incoming req see
system.mem_ctrls.wrQLenPdf::1                       1                       # What write queue length does an incoming req see
system.mem_ctrls.wrQLenPdf::2                       1                       # What write queue length does an incoming req see
system.mem_ctrls.wrQLenPdf::3                       1                       # What write queue length does an incoming req see
system.mem_ctrls.wrQLenPdf::4                       1                       # What write queue length does an incoming req see
system.mem_ctrls.wrQLenPdf::5                       1                       # What write queue length does an incoming req see
system.mem_ctrls.wrQLenPdf::6                       1                       # What write queue length does an incoming req see
system.mem_ctrls.wrQLenPdf::7                       1                       # What write queue length does an incoming req see
system.mem_ctrls.wrQLenPdf::8                       1                       # What write queue length does an incoming req see
system.mem_ctrls.wrQLenPdf::9                       1                       # What write queue length does an incoming req see
system.mem_ctrls.wrQLenPdf::10                      1                       # What write queue length does an incoming req see
system.mem_ctrls.wrQLenPdf::11                      1                       # What write queue length does an incoming req see
system.mem_ctrls.wrQLenPdf::12                      1                       # What write queue length does an incoming req see
system.mem_ctrls.wrQLenPdf::13                      1                       # What write queue length does an incoming req see
system.mem_ctrls.wrQLenPdf::14                      1                       # What write queue length does an incoming req see
system.mem_ctrls.wrQLenPdf::15                     25                       # What write queue length does an incoming req see
system.mem_ctrls.wrQLenPdf::16                     33                       # What write queue length does an incoming req see
system.mem_ctrls.wrQLenPdf::17                    166                       # What write queue length does an incoming req see
system.mem_ctrls.wrQLenPdf::18                    208                       # What write queue length does an incoming req see
system.mem_ctrls.wrQLenPdf::19                    210                       # What write queue length does an incoming req see
system.mem_ctrls.wrQLenPdf::20                    211                       # What write queue length does an incoming req see
system.mem_ctrls.wrQLenPdf::21                    211                       # What write queue length does an incoming req see
system.mem_ctrls.wrQLenPdf::22                    210                       # What write queue length does an incoming req see
system.mem_ctrls.wrQLenPdf::23                    209                       # What write queue length does an incoming req see
system.mem_ctrls.wrQLenPdf::24                    208                       # What write queue length does an incoming req see
system.mem_ctrls.wrQLenPdf::25                    208                       # What write queue length does an incoming req see
system.mem_ctrls.wrQLenPdf::26                    208                       # What write queue length does an incoming req see
system.mem_ctrls.wrQLenPdf::27                    208                       # What write queue length does an incoming req see
system.mem_ctrls.wrQLenPdf::28                    208                       # What write queue length does an incoming req see
system.mem_ctrls.wrQLenPdf::29                    208                       # What write queue length does an incoming req see
system.mem_ctrls.wrQLenPdf::30                    208                       # What write queue length does an incoming req see
system.mem_ctrls.wrQLenPdf::31                    208                       # What write queue length does an incoming req see
system.mem_ctrls.wrQLenPdf::32                    208                       # What write queue length does an incoming req see
system.mem_ctrls.wrQLenPdf::33                     52                       # What write queue length does an incoming req see
system.mem_ctrls.wrQLenPdf::34                      0                       # What write queue length does an incoming req see
system.mem_ctrls.wrQLenPdf::35                      0                       # What write queue length does an incoming req see
system.mem_ctrls.wrQLenPdf::36                      0                       # What write queue length does an incoming req see
system.mem_ctrls.wrQLenPdf::37                      0                       # What write queue length does an incoming req see
system.mem_ctrls.wrQLenPdf::38                      0                       # What write queue length does an incoming req see
system.mem_ctrls.wrQLenPdf::39                      0                       # What write queue length does an incoming req see
system.mem_ctrls.wrQLenPdf::40                      0                       # What write queue length does an incoming req see
system.mem_ctrls.wrQLenPdf::41                      0                       # What write queue length does an incoming req see
system.mem_ctrls.wrQLenPdf::42                      0                       # What write queue length does an incoming req see
system.mem_ctrls.wrQLenPdf::43                      0                       # What write queue length does an incoming req see
system.mem_ctrls.wrQLenPdf::44                      0                       # What write queue length does an incoming req see
system.mem_ctrls.wrQLenPdf::45                      0                       # What write queue length does an incoming req see
system.mem_ctrls.wrQLenPdf::46                      0                       # What write queue length does an incoming req see
system.mem_ctrls.wrQLenPdf::47                      0                       # What write queue length does an incoming req see
system.mem_ctrls.wrQLenPdf::48                      0                       # What write queue length does an incoming req see
system.mem_ctrls.wrQLenPdf::49                      0                       # What write queue length does an incoming req see
system.mem_ctrls.wrQLenPdf::50                      0                       # What write queue length does an incoming req see
system.mem_ctrls.wrQLenPdf::51                      0                       # What write queue length does an incoming req see
system.mem_ctrls.wrQLenPdf::52                      0                       # What write queue length does an incoming req see
system.mem_ctrls.wrQLenPdf::53                      0                       # What write queue length does an incoming req see
system.mem_ctrls.wrQLenPdf::54                      0                       # What write queue length does an incoming req see
system.mem_ctrls.wrQLenPdf::55                      0                       # What write queue length does an incoming req see
system.mem_ctrls.wrQLenPdf::56                      0                       # What write queue length does an incoming req see
system.mem_ctrls.wrQLenPdf::57                      0                       # What write queue length does an incoming req see
system.mem_ctrls.wrQLenPdf::58                      0                       # What write queue length does an incoming req see
system.mem_ctrls.wrQLenPdf::59                      0                       # What write queue length does an incoming req see
system.mem_ctrls.wrQLenPdf::60                      0                       # What write queue length does an incoming req see
system.mem_ctrls.wrQLenPdf::61                      0                       # What write queue length does an incoming req see
system.mem_ctrls.wrQLenPdf::62                      0                       # What write queue length does an incoming req see
system.mem_ctrls.wrQLenPdf::63                      0                       # What write queue length does an incoming req see
system.mem_ctrls.bytesPerActivate::samples        48232                       # Bytes accessed per row activation
system.mem_ctrls.bytesPerActivate::mean    860.181125                       # Bytes accessed per row activation
system.mem_ctrls.bytesPerActivate::gmean   764.299975                       # Bytes accessed per row activation
system.mem_ctrls.bytesPerActivate::stdev   295.424339                       # Bytes accessed per row activation
system.mem_ctrls.bytesPerActivate::0-127           17      0.04%      0.04% # Bytes accessed per row activation
system.mem_ctrls.bytesPerActivate::128-255         2892      6.00%      6.03% # Bytes accessed per row activation
system.mem_ctrls.bytesPerActivate::256-383         1986      4.12%     10.15% # Bytes accessed per row activation
system.mem_ctrls.bytesPerActivate::384-511         3392      7.03%     17.18% # Bytes accessed per row activation
system.mem_ctrls.bytesPerActivate::512-639         1195      2.48%     19.66% # Bytes accessed per row activation
system.mem_ctrls.bytesPerActivate::640-767         1317      2.73%     22.39% # Bytes accessed per row activation
system.mem_ctrls.bytesPerActivate::768-895         1196      2.48%     24.87% # Bytes accessed per row activation
system.mem_ctrls.bytesPerActivate::896-1023         1377      2.85%     27.72% # Bytes accessed per row activation
system.mem_ctrls.bytesPerActivate::1024-1151        34860     72.28%    100.00% # Bytes accessed per row activation
system.mem_ctrls.bytesPerActivate::total        48232                       # Bytes accessed per row activation
system.mem_ctrls.rdPerTurnAround::samples          208                       # Reads before turning the bus around for writes
system.mem_ctrls.rdPerTurnAround::mean    3100.365385                       # Reads before turning the bus around for writes
system.mem_ctrls.rdPerTurnAround::gmean     31.394360                       # Reads before turning the bus around for writes
system.mem_ctrls.rdPerTurnAround::stdev  18272.192301                       # Reads before turning the bus around for writes
system.mem_ctrls.rdPerTurnAround::0-8191          201     96.63%     96.63% # Reads before turning the bus around for writes
system.mem_ctrls.rdPerTurnAround::24576-32767            1      0.48%     97.12% # Reads before turning the bus around for writes
system.mem_ctrls.rdPerTurnAround::40960-49151            1      0.48%     97.60% # Reads before turning the bus around for writes
system.mem_ctrls.rdPerTurnAround::65536-73727            1      0.48%     98.08% # Reads before turning the bus around for writes
system.mem_ctrls.rdPerTurnAround::81920-90111            1      0.48%     98.56% # Reads before turning the bus around for writes
system.mem_ctrls.rdPerTurnAround::98304-106495            1      0.48%     99.04% # Reads before turning the bus around for writes
system.mem_ctrls.rdPerTurnAround::114688-122879            1      0.48%     99.52% # Reads before turning the bus around for writes
system.mem_ctrls.rdPerTurnAround::172032-180223            1      0.48%    100.00% # Reads before turning the bus around for writes
system.mem_ctrls.rdPerTurnAround::total           208                       # Reads before turning the bus around for writes
system.mem_ctrls.wrPerTurnAround::samples          208                       # Writes before turning the bus around for reads
system.mem_ctrls.wrPerTurnAround::mean      16.336538                       # Writes before turning the bus around for reads
system.mem_ctrls.wrPerTurnAround::gmean     16.318114                       # Writes before turning the bus around for reads
system.mem_ctrls.wrPerTurnAround::stdev      0.805903                       # Writes before turning the bus around for reads
system.mem_ctrls.wrPerTurnAround::16              173     83.17%     83.17% # Writes before turning the bus around for reads
system.mem_ctrls.wrPerTurnAround::17                8      3.85%     87.02% # Writes before turning the bus around for reads
system.mem_ctrls.wrPerTurnAround::18               20      9.62%     96.63% # Writes before turning the bus around for reads
system.mem_ctrls.wrPerTurnAround::19                6      2.88%     99.52% # Writes before turning the bus around for reads
system.mem_ctrls.wrPerTurnAround::20                1      0.48%    100.00% # Writes before turning the bus around for reads
system.mem_ctrls.wrPerTurnAround::total           208                       # Writes before turning the bus around for reads
system.mem_ctrls.bytesReadDRAM               41272576                       # Total number of bytes read from DRAM
system.mem_ctrls.bytesReadWrQ                15907456                       # Total number of bytes read from write queue
system.mem_ctrls.bytesWritten                  217472                       # Total number of bytes written to DRAM
system.mem_ctrls.bytesReadSys                57180032                       # Total read bytes from the system interface side
system.mem_ctrls.bytesWrittenSys              2082432                       # Total written bytes from the system interface side
system.mem_ctrls.avgRdBW                       723.38                       # Average DRAM read bandwidth in MiByte/s
system.mem_ctrls.avgWrBW                         3.81                       # Average achieved write bandwidth in MiByte/s
system.mem_ctrls.avgRdBWSys                   1002.19                       # Average system read bandwidth in MiByte/s
system.mem_ctrls.avgWrBWSys                     36.50                       # Average system write bandwidth in MiByte/s
system.mem_ctrls.peakBW                      12800.00                       # Theoretical peak bandwidth in MiByte/s
system.mem_ctrls.busUtil                         5.68                       # Data bus utilization in percentage
system.mem_ctrls.busUtilRead                     5.65                       # Data bus utilization in percentage for reads
system.mem_ctrls.busUtilWrite                    0.03                       # Data bus utilization in percentage for writes
system.mem_ctrls.totGap                   57055059000                       # Total gap between requests
system.mem_ctrls.avgGap                     123232.26                       # Average gap between requests
system.mem_ctrls.masterReadBytes::.cpu.inst        86976                       # Per-master bytes read from memory
system.mem_ctrls.masterReadBytes::.cpu.data     41185600                       # Per-master bytes read from memory
system.mem_ctrls.masterWriteBytes::.writebacks       217472                       # Per-master bytes write to memory
system.mem_ctrls.masterReadRate::.cpu.inst 1524421.717555096373                       # Per-master bytes read from memory rate (Bytes/sec)
system.mem_ctrls.masterReadRate::.cpu.data 721856869.602386593819                       # Per-master bytes read from memory rate (Bytes/sec)
system.mem_ctrls.masterWriteRate::.writebacks 3811615.155446812045                       # Per-master bytes write to memory rate (Bytes/sec)
system.mem_ctrls.masterReadAccesses::.cpu.inst         2806                       # Per-master read serviced memory accesses
system.mem_ctrls.masterReadAccesses::.cpu.data       890632                       # Per-master read serviced memory accesses
system.mem_ctrls.masterWriteAccesses::.writebacks        32538                       # Per-master write serviced memory accesses
system.mem_ctrls.masterReadTotalLat::.cpu.inst     49492750                       # Per-master read total memory access latency
system.mem_ctrls.masterReadTotalLat::.cpu.data  17189798750                       # Per-master read total memory access latency
system.mem_ctrls.masterWriteTotalLat::.writebacks 1391797521000                       # Per-master write total memory access latency
system.mem_ctrls.masterReadAvgLat::.cpu.inst     17638.19                       # Per-master read average memory access latency
system.mem_ctrls.masterReadAvgLat::.cpu.data     19300.67                       # Per-master read average memory access latency
system.mem_ctrls.masterWriteAvgLat::.writebacks  42774525.82                       # Per-master write average memory access latency
system.mem_ctrls.pageHitRate                    92.56                       # Row buffer hit rate, read and write combined
system.mem_ctrls.rank1.actEnergy            134546160                       # Energy for activate commands per rank (pJ)
system.mem_ctrls.rank1.preEnergy             71501595                       # Energy for precharge commands per rank (pJ)
system.mem_ctrls.rank1.readEnergy          1695664320                       # Energy for read commands per rank (pJ)
system.mem_ctrls.rank1.writeEnergy           11818080                       # Energy for write commands per rank (pJ)
system.mem_ctrls.rank1.refreshEnergy     4503467280.000001                       # Energy for refresh commands per rank (pJ)
system.mem_ctrls.rank1.actBackEnergy      16833096360                       # Energy for active background per rank (pJ)
system.mem_ctrls.rank1.preBackEnergy       7733911200                       # Energy for precharge background per rank (pJ)
system.mem_ctrls.rank1.actPowerDownEnergy            0                       # Energy for active power-down per rank (pJ)
system.mem_ctrls.rank1.prePowerDownEnergy            0                       # Energy for precharge power-down per rank (pJ)
system.mem_ctrls.rank1.selfRefreshEnergy            0                       # Energy for self refresh per rank (pJ)
system.mem_ctrls.rank1.totalEnergy        30984004995                       # Total energy per rank (pJ)
system.mem_ctrls.rank1.averagePower        543.054292                       # Core power per rank (mW)
system.mem_ctrls.rank1.totalIdleTime                0                       # Total Idle time Per DRAM Rank
system.mem_ctrls.rank1.memoryStateTime::IDLE  19788794250                       # Time in different power states
system.mem_ctrls.rank1.memoryStateTime::REF   1905020000                       # Time in different power states
system.mem_ctrls.rank1.memoryStateTime::SREF            0                       # Time in different power states
system.mem_ctrls.rank1.memoryStateTime::PRE_PDN            0                       # Time in different power states
system.mem_ctrls.rank1.memoryStateTime::ACT  35361263750                       # Time in different power states
system.mem_ctrls.rank1.memoryStateTime::ACT_PDN            0                       # Time in different power states
system.mem_ctrls.rank0.actEnergy            209894580                       # Energy for activate commands per rank (pJ)
system.mem_ctrls.rank0.preEnergy            111538845                       # Energy for precharge commands per rank (pJ)
system.mem_ctrls.rank0.readEnergy          2908807440                       # Energy for read commands per rank (pJ)
system.mem_ctrls.rank0.writeEnergy            5919480                       # Energy for write commands per rank (pJ)
system.mem_ctrls.rank0.refreshEnergy     4503467280.000001                       # Energy for refresh commands per rank (pJ)
system.mem_ctrls.rank0.actBackEnergy      23237401470                       # Energy for active background per rank (pJ)
system.mem_ctrls.rank0.preBackEnergy       2340812160                       # Energy for precharge background per rank (pJ)
system.mem_ctrls.rank0.actPowerDownEnergy            0                       # Energy for active power-down per rank (pJ)
system.mem_ctrls.rank0.prePowerDownEnergy            0                       # Energy for precharge power-down per rank (pJ)
system.mem_ctrls.rank0.selfRefreshEnergy            0                       # Energy for self refresh per rank (pJ)
system.mem_ctrls.rank0.totalEnergy        33317841255                       # Total energy per rank (pJ)
system.mem_ctrls.rank0.averagePower        583.959262                       # Core power per rank (mW)
system.mem_ctrls.rank0.totalIdleTime                0                       # Total Idle time Per DRAM Rank
system.mem_ctrls.rank0.memoryStateTime::IDLE   5597640500                       # Time in different power states
system.mem_ctrls.rank0.memoryStateTime::REF   1905020000                       # Time in different power states
system.mem_ctrls.rank0.memoryStateTime::SREF            0                       # Time in different power states
system.mem_ctrls.rank0.memoryStateTime::PRE_PDN            0                       # Time in different power states
system.mem_ctrls.rank0.memoryStateTime::ACT  49552417500                       # Time in different power states
system.mem_ctrls.rank0.memoryStateTime::ACT_PDN            0                       # Time in different power states
system.cpu_clk_domain.clock                       500                       # Clock period in ticks
system.cpu.numPwrStateTransitions                   1                       # Number of power state transitions
system.cpu.pwrStateResidencyTicks::ON     57055078000                       # Cumulative time (in ticks) in various power states
system.cpu.icache.pwrStateResidencyTicks::UNDEFINED  57055078000                       # Cumulative time (in ticks) in various power states
system.cpu.icache.demand_hits::.cpu.inst     29673576                       # number of demand (read+write) hits
system.cpu.icache.demand_hits::total         29673576                       # number of demand (read+write) hits
system.cpu.icache.overall_hits::.cpu.inst     29673576                       # number of overall hits
system.cpu.icache.overall_hits::total        29673576                       # number of overall hits
system.cpu.icache.demand_misses::.cpu.inst         1403                       # number of demand (read+write) misses
system.cpu.icache.demand_misses::total           1403                       # number of demand (read+write) misses
system.cpu.icache.overall_misses::.cpu.inst         1403                       # number of overall misses
system.cpu.icache.overall_misses::total          1403                       # number of overall misses
system.cpu.icache.demand_miss_latency::.cpu.inst     64938000                       # number of demand (read+write) miss cycles
system.cpu.icache.demand_miss_latency::total     64938000                       # number of demand (read+write) miss cycles
system.cpu.icache.overall_miss_latency::.cpu.inst     64938000                       # number of overall miss cycles
system.cpu.icache.overall_miss_latency::total     64938000                       # number of overall miss cycles
system.cpu.icache.demand_accesses::.cpu.inst     29674979                       # number of demand (read+write) accesses
system.cpu.icache.demand_accesses::total     29674979                       # number of demand (read+write) accesses
system.cpu.icache.overall_accesses::.cpu.inst     29674979                       # number of overall (read+write) accesses
system.cpu.icache.overall_accesses::total     29674979                       # number of overall (read+write) accesses
system.cpu.icache.demand_miss_rate::.cpu.inst     0.000047                       # miss rate for demand accesses
system.cpu.icache.demand_miss_rate::total     0.000047                       # miss rate for demand accesses
system.cpu.icache.overall_miss_rate::.cpu.inst     0.000047                       # miss rate for overall accesses
system.cpu.icache.overall_miss_rate::total     0.000047                       # miss rate for overall accesses
system.cpu.icache.demand_avg_miss_latency::.cpu.inst 46285.103350                       # average overall miss latency
system.cpu.icache.demand_avg_miss_latency::total 46285.103350                       # average overall miss latency
system.cpu.icache.overall_avg_miss_latency::.cpu.inst 46285.103350                       # average overall miss latency
system.cpu.icache.overall_avg_miss_latency::total 46285.103350                       # average overall miss latency
system.cpu.icache.blocked_cycles::no_mshrs            0                       # number of cycles access was blocked
system.cpu.icache.blocked_cycles::no_targets            0                       # number of cycles access was blocked
system.cpu.icache.blocked::no_mshrs                 0                       # number of cycles access was blocked
system.cpu.icache.blocked::no_targets               0                       # number of cycles access was blocked
system.cpu.icache.avg_blocked_cycles::no_mshrs          nan                       # average number of cycles each access was blocked
system.cpu.icache.avg_blocked_cycles::no_targets          nan                       # average number of cycles each access was blocked
system.cpu.icache.writebacks::.writebacks         1371                       # number of writebacks
system.cpu.icache.writebacks::total              1371                       # number of writebacks
system.cpu.icache.demand_mshr_misses::.cpu.inst         1403                       # number of demand (read+write) MSHR misses
system.cpu.icache.demand_mshr_misses::total         1403                       # number of demand (read+write) MSHR misses
system.cpu.icache.overall_mshr_misses::.cpu.inst         1403                       # number of overall MSHR misses
system.cpu.icache.overall_mshr_misses::total         1403                       # number of overall MSHR misses
system.cpu.icache.demand_mshr_miss_latency::.cpu.inst     63535000                       # number of demand (read+write) MSHR miss cycles
system.cpu.icache.demand_mshr_miss_latency::total     63535000                       # number of demand (read+write) MSHR miss cycles
system.cpu.icache.overall_mshr_miss_latency::.cpu.inst     63535000                       # number of overall MSHR miss cycles
system.cpu.icache.overall_mshr_miss_latency::total     63535000                       # number of overall MSHR miss cycles
system.cpu.icache.demand_mshr_miss_rate::.cpu.inst     0.000047                       # mshr miss rate for demand accesses
system.cpu.icache.demand_mshr_miss_rate::total     0.000047                       # mshr miss rate for demand accesses
system.cpu.icache.overall_mshr_miss_rate::.cpu.inst     0.000047                       # mshr miss rate for overall accesses
system.cpu.icache.overall_mshr_miss_rate::total     0.000047                       # mshr miss rate for overall accesses
system.cpu.icache.demand_avg_mshr_miss_latency::.cpu.inst 45285.103350                       # average overall mshr miss latency
system.cpu.icache.demand_avg_mshr_miss_latency::total 45285.103350                       # average overall mshr miss latency
system.cpu.icache.overall_avg_mshr_miss_latency::.cpu.inst 45285.103350                       # average overall mshr miss latency
system.cpu.icache.overall_avg_mshr_miss_latency::total 45285.103350                       # average overall mshr miss latency
system.cpu.icache.replacements                   1371                       # number of replacements
system.cpu.icache.ReadReq_hits::.cpu.inst     29673576                       # number of ReadReq hits
system.cpu.icache.ReadReq_hits::total        29673576                       # number of ReadReq hits
system.cpu.icache.ReadReq_misses::.cpu.inst         1403                       # number of ReadReq misses
system.cpu.icache.ReadReq_misses::total          1403                       # number of ReadReq misses
system.cpu.icache.ReadReq_miss_latency::.cpu.inst     64938000                       # number of ReadReq miss cycles
system.cpu.icache.ReadReq_miss_latency::total     64938000                       # number of ReadReq miss cycles
system.cpu.icache.ReadReq_accesses::.cpu.inst     29674979                       # number of ReadReq accesses(hits+misses)
system.cpu.icache.ReadReq_accesses::total     29674979                       # number of ReadReq accesses(hits+misses)
system.cpu.icache.ReadReq_miss_rate::.cpu.inst     0.000047                       # miss rate for ReadReq accesses
system.cpu.icache.ReadReq_miss_rate::total     0.000047                       # miss rate for ReadReq accesses
system.cpu.icache.ReadReq_avg_miss_latency::.cpu.inst 46285.103350                       # average ReadReq miss latency
system.cpu.icache.ReadReq_avg_miss_latency::total 46285.103350                       # average ReadReq miss latency
system.cpu.icache.ReadReq_mshr_misses::.cpu.inst         1403                       # number of ReadReq MSHR misses
system.cpu.icache.ReadReq_mshr_misses::total         1403                       # number of ReadReq MSHR misses
system.cpu.icache.ReadReq_mshr_miss_latency::.cpu.inst     63535000                       # number of ReadReq MSHR miss cycles
system.cpu.icache.ReadReq_mshr_miss_latency::total     63535000                       # number of ReadReq MSHR miss cycles
system.cpu.icache.ReadReq_mshr_miss_rate::.cpu.inst     0.000047                       # mshr miss rate for ReadReq accesses
system.cpu.icache.ReadReq_mshr_miss_rate::total     0.000047                       # mshr miss rate for ReadReq accesses
system.cpu.icache.ReadReq_avg_mshr_miss_latency::.cpu.inst 45285.103350                       # average ReadReq mshr miss latency
system.cpu.icache.ReadReq_avg_mshr_miss_latency::total 45285.103350                       # average ReadReq mshr miss latency
system.cpu.icache.tags.pwrStateResidencyTicks::UNDEFINED  57055078000                       # Cumulative time (in ticks) in various power states
system.cpu.icache.tags.tagsinuse            31.998182                       # Cycle average of tags in use
system.cpu.icache.tags.total_refs            29674979                       # Total number of references to valid blocks.
system.cpu.icache.tags.sampled_refs              1403                       # Sample count of references to valid blocks.
system.cpu.icache.tags.avg_refs          21151.089808                       # Average number of references to valid blocks.
system.cpu.icache.tags.warmup_cycle             82000                       # Cycle when the warmup percentage was hit.
system.cpu.icache.tags.occ_blocks::.cpu.inst    31.998182                       # Average occupied blocks per requestor
system.cpu.icache.tags.occ_percent::.cpu.inst     0.999943                       # Average percentage of cache occupancy
system.cpu.icache.tags.occ_percent::total     0.999943                       # Average percentage of cache occupancy
system.cpu.icache.tags.occ_task_id_blocks::1024           32                       # Occupied blocks per task id
system.cpu.icache.tags.age_task_id_blocks_1024::0           29                       # Occupied blocks per task id
system.cpu.icache.tags.age_task_id_blocks_1024::1            3                       # Occupied blocks per task id
system.cpu.icache.tags.occ_task_id_percent::1024            1                       # Percentage of cache occupancy per task id
system.cpu.icache.tags.tag_accesses          59351361                       # Number of tag accesses
system.cpu.icache.tags.data_accesses         59351361                       # Number of data accesses
system.cpu.dtb.walker.pwrStateResidencyTicks::UNDEFINED  57055078000                       # Cumulative time (in ticks) in various power states
system.cpu.interrupts.clk_domain.clock           8000                       # Clock period in ticks
system.cpu.itb_walker_cache.pwrStateResidencyTicks::UNDEFINED  57055078000                       # Cumulative time (in ticks) in various power states
system.cpu.itb_walker_cache.blocked_cycles::no_mshrs            0                       # number of cycles access was blocked
system.cpu.itb_walker_cache.blocked_cycles::no_targets            0                       # number of cycles access was blocked
system.cpu.itb_walker_cache.blocked::no_mshrs            0                       # number of cycles access was blocked
system.cpu.itb_walker_cache.blocked::no_targets            0                       # number of cycles access was blocked
system.cpu.itb_walker_cache.avg_blocked_cycles::no_mshrs          nan                       # average number of cycles each access was blocked
system.cpu.itb_walker_cache.avg_blocked_cycles::no_targets          nan                       # average number of cycles each access was blocked
system.cpu.itb_walker_cache.replacements            0                       # number of replacements
system.cpu.itb_walker_cache.tags.pwrStateResidencyTicks::UNDEFINED  57055078000                       # Cumulative time (in ticks) in various power states
system.cpu.itb_walker_cache.tags.tagsinuse            0                       # Cycle average of tags in use
system.cpu.itb_walker_cache.tags.total_refs            0                       # Total number of references to valid blocks.
system.cpu.itb_walker_cache.tags.sampled_refs            0                       # Sample count of references to valid blocks.
system.cpu.itb_walker_cache.tags.avg_refs          nan                       # Average number of references to valid blocks.
system.cpu.itb_walker_cache.tags.warmup_cycle            0                       # Cycle when the warmup percentage was hit.
system.cpu.itb_walker_cache.tags.tag_accesses            0                       # Number of tag accesses
system.cpu.itb_walker_cache.tags.data_accesses            0                       # Number of data accesses
system.cpu.itb.walker.pwrStateResidencyTicks::UNDEFINED  57055078000                       # Cumulative time (in ticks) in various power states
system.cpu.dtb_walker_cache.pwrStateResidencyTicks::UNDEFINED  57055078000                       # Cumulative time (in ticks) in various power states
system.cpu.dtb_walker_cache.blocked_cycles::no_mshrs            0                       # number of cycles access was blocked
system.cpu.dtb_walker_cache.blocked_cycles::no_targets            0                       # number of cycles access was blocked
system.cpu.dtb_walker_cache.blocked::no_mshrs            0                       # number of cycles access was blocked
system.cpu.dtb_walker_cache.blocked::no_targets            0                       # number of cycles access was blocked
system.cpu.dtb_walker_cache.avg_blocked_cycles::no_mshrs          nan                       # average number of cycles each access was blocked
system.cpu.dtb_walker_cache.avg_blocked_cycles::no_targets          nan                       # average number of cycles each access was blocked
system.cpu.dtb_walker_cache.replacements            0                       # number of replacements
system.cpu.dtb_walker_cache.tags.pwrStateResidencyTicks::UNDEFINED  57055078000                       # Cumulative time (in ticks) in various power states
system.cpu.dtb_walker_cache.tags.tagsinuse            0                       # Cycle average of tags in use
system.cpu.dtb_walker_cache.tags.total_refs            0                       # Total number of references to valid blocks.
system.cpu.dtb_walker_cache.tags.sampled_refs            0                       # Sample count of references to valid blocks.
system.cpu.dtb_walker_cache.tags.avg_refs          nan                       # Average number of references to valid blocks.
system.cpu.dtb_walker_cache.tags.warmup_cycle            0                       # Cycle when the warmup percentage was hit.
system.cpu.dtb_walker_cache.tags.tag_accesses            0                       # Number of tag accesses
system.cpu.dtb_walker_cache.tags.data_accesses            0                       # Number of data accesses
system.cpu.dcache.pwrStateResidencyTicks::UNDEFINED  57055078000                       # Cumulative time (in ticks) in various power states
system.cpu.dcache.demand_hits::.cpu.data      4773610                       # number of demand (read+write) hits
system.cpu.dcache.demand_hits::total          4773610                       # number of demand (read+write) hits
system.cpu.dcache.overall_hits::.cpu.data      4773856                       # number of overall hits
system.cpu.dcache.overall_hits::total         4773856                       # number of overall hits
system.cpu.dcache.demand_misses::.cpu.data       445210                       # number of demand (read+write) misses
system.cpu.dcache.demand_misses::total         445210                       # number of demand (read+write) misses
system.cpu.dcache.overall_misses::.cpu.data       445412                       # number of overall misses
system.cpu.dcache.overall_misses::total        445412                       # number of overall misses
system.cpu.dcache.demand_miss_latency::.cpu.data  22522610500                       # number of demand (read+write) miss cycles
system.cpu.dcache.demand_miss_latency::total  22522610500                       # number of demand (read+write) miss cycles
system.cpu.dcache.overall_miss_latency::.cpu.data  22522610500                       # number of overall miss cycles
system.cpu.dcache.overall_miss_latency::total  22522610500                       # number of overall miss cycles
system.cpu.dcache.demand_accesses::.cpu.data      5218820                       # number of demand (read+write) accesses
system.cpu.dcache.demand_accesses::total      5218820                       # number of demand (read+write) accesses
system.cpu.dcache.overall_accesses::.cpu.data      5219268                       # number of overall (read+write) accesses
system.cpu.dcache.overall_accesses::total      5219268                       # number of overall (read+write) accesses
system.cpu.dcache.demand_miss_rate::.cpu.data     0.085309                       # miss rate for demand accesses
system.cpu.dcache.demand_miss_rate::total     0.085309                       # miss rate for demand accesses
system.cpu.dcache.overall_miss_rate::.cpu.data     0.085340                       # miss rate for overall accesses
system.cpu.dcache.overall_miss_rate::total     0.085340                       # miss rate for overall accesses
system.cpu.dcache.demand_avg_miss_latency::.cpu.data 50588.734530                       # average overall miss latency
system.cpu.dcache.demand_avg_miss_latency::total 50588.734530                       # average overall miss latency
system.cpu.dcache.overall_avg_miss_latency::.cpu.data 50565.791896                       # average overall miss latency
system.cpu.dcache.overall_avg_miss_latency::total 50565.791896                       # average overall miss latency
system.cpu.dcache.blocked_cycles::no_mshrs            0                       # number of cycles access was blocked
system.cpu.dcache.blocked_cycles::no_targets            0                       # number of cycles access was blocked
system.cpu.dcache.blocked::no_mshrs                 0                       # number of cycles access was blocked
system.cpu.dcache.blocked::no_targets               0                       # number of cycles access was blocked
system.cpu.dcache.avg_blocked_cycles::no_mshrs          nan                       # average number of cycles each access was blocked
system.cpu.dcache.avg_blocked_cycles::no_targets          nan                       # average number of cycles each access was blocked
system.cpu.dcache.writebacks::.writebacks        14899                       # number of writebacks
system.cpu.dcache.writebacks::total             14899                       # number of writebacks
system.cpu.dcache.demand_mshr_misses::.cpu.data       445210                       # number of demand (read+write) MSHR misses
system.cpu.dcache.demand_mshr_misses::total       445210                       # number of demand (read+write) MSHR misses
system.cpu.dcache.overall_mshr_misses::.cpu.data       445316                       # number of overall MSHR misses
system.cpu.dcache.overall_mshr_misses::total       445316                       # number of overall MSHR misses
system.cpu.dcache.demand_mshr_miss_latency::.cpu.data  22077400500                       # number of demand (read+write) MSHR miss cycles
system.cpu.dcache.demand_mshr_miss_latency::total  22077400500                       # number of demand (read+write) MSHR miss cycles
system.cpu.dcache.overall_mshr_miss_latency::.cpu.data  22083540500                       # number of overall MSHR miss cycles
system.cpu.dcache.overall_mshr_miss_latency::total  22083540500                       # number of overall MSHR miss cycles
system.cpu.dcache.demand_mshr_miss_rate::.cpu.data     0.085309                       # mshr miss rate for demand accesses
system.cpu.dcache.demand_mshr_miss_rate::total     0.085309                       # mshr miss rate for demand accesses
system.cpu.dcache.overall_mshr_miss_rate::.cpu.data     0.085322                       # mshr miss rate for overall accesses
system.cpu.dcache.overall_mshr_miss_rate::total     0.085322                       # mshr miss rate for overall accesses
system.cpu.dcache.demand_avg_mshr_miss_latency::.cpu.data 49588.734530                       # average overall mshr miss latency
system.cpu.dcache.demand_avg_mshr_miss_latency::total 49588.734530                       # average overall mshr miss latency
system.cpu.dcache.overall_avg_mshr_miss_latency::.cpu.data 49590.718726                       # average overall mshr miss latency
system.cpu.dcache.overall_avg_mshr_miss_latency::total 49590.718726                       # average overall mshr miss latency
system.cpu.dcache.replacements                 445284                       # number of replacements
system.cpu.dcache.ReadReq_hits::.cpu.data      4714278                       # number of ReadReq hits
system.cpu.dcache.ReadReq_hits::total         4714278                       # number of ReadReq hits
system.cpu.dcache.ReadReq_misses::.cpu.data       438470                       # number of ReadReq misses
system.cpu.dcache.ReadReq_misses::total        438470                       # number of ReadReq misses
system.cpu.dcache.ReadReq_miss_latency::.cpu.data  22352733000                       # number of ReadReq miss cycles
system.cpu.dcache.ReadReq_miss_latency::total  22352733000                       # number of ReadReq miss cycles
system.cpu.dcache.ReadReq_accesses::.cpu.data      5152748                       # number of ReadReq accesses(hits+misses)
system.cpu.dcache.ReadReq_accesses::total      5152748                       # number of ReadReq accesses(hits+misses)
system.cpu.dcache.ReadReq_miss_rate::.cpu.data     0.085094                       # miss rate for ReadReq accesses
system.cpu.dcache.ReadReq_miss_rate::total     0.085094                       # miss rate for ReadReq accesses
system.cpu.dcache.ReadReq_avg_miss_latency::.cpu.data 50978.933564                       # average ReadReq miss latency
system.cpu.dcache.ReadReq_avg_miss_latency::total 50978.933564                       # average ReadReq miss latency
system.cpu.dcache.ReadReq_mshr_misses::.cpu.data       438470                       # number of ReadReq MSHR misses
system.cpu.dcache.ReadReq_mshr_misses::total       438470                       # number of ReadReq MSHR misses
system.cpu.dcache.ReadReq_mshr_miss_latency::.cpu.data  21914263000                       # number of ReadReq MSHR miss cycles
system.cpu.dcache.ReadReq_mshr_miss_latency::total  21914263000                       # number of ReadReq MSHR miss cycles
system.cpu.dcache.ReadReq_mshr_miss_rate::.cpu.data     0.085094                       # mshr miss rate for ReadReq accesses
system.cpu.dcache.ReadReq_mshr_miss_rate::total     0.085094                       # mshr miss rate for ReadReq accesses
system.cpu.dcache.ReadReq_avg_mshr_miss_latency::.cpu.data 49978.933564                       # average ReadReq mshr miss latency
system.cpu.dcache.ReadReq_avg_mshr_miss_latency::total 49978.933564                       # average ReadReq mshr miss latency
system.cpu.dcache.WriteReq_hits::.cpu.data        59332                       # number of WriteReq hits
system.cpu.dcache.WriteReq_hits::total          59332                       # number of WriteReq hits
system.cpu.dcache.WriteReq_misses::.cpu.data         6740                       # number of WriteReq misses
system.cpu.dcache.WriteReq_misses::total         6740                       # number of WriteReq misses
system.cpu.dcache.WriteReq_miss_latency::.cpu.data    169877500                       # number of WriteReq miss cycles
system.cpu.dcache.WriteReq_miss_latency::total    169877500                       # number of WriteReq miss cycles
system.cpu.dcache.WriteReq_accesses::.cpu.data        66072                       # number of WriteReq accesses(hits+misses)
system.cpu.dcache.WriteReq_accesses::total        66072                       # number of WriteReq accesses(hits+misses)
system.cpu.dcache.WriteReq_miss_rate::.cpu.data     0.102010                       # miss rate for WriteReq accesses
system.cpu.dcache.WriteReq_miss_rate::total     0.102010                       # miss rate for WriteReq accesses
system.cpu.dcache.WriteReq_avg_miss_latency::.cpu.data 25204.376855                       # average WriteReq miss latency
system.cpu.dcache.WriteReq_avg_miss_latency::total 25204.376855                       # average WriteReq miss latency
system.cpu.dcache.WriteReq_mshr_misses::.cpu.data         6740                       # number of WriteReq MSHR misses
system.cpu.dcache.WriteReq_mshr_misses::total         6740                       # number of WriteReq MSHR misses
system.cpu.dcache.WriteReq_mshr_miss_latency::.cpu.data    163137500                       # number of WriteReq MSHR miss cycles
system.cpu.dcache.WriteReq_mshr_miss_latency::total    163137500                       # number of WriteReq MSHR miss cycles
system.cpu.dcache.WriteReq_mshr_miss_rate::.cpu.data     0.102010                       # mshr miss rate for WriteReq accesses
system.cpu.dcache.WriteReq_mshr_miss_rate::total     0.102010                       # mshr miss rate for WriteReq accesses
system.cpu.dcache.WriteReq_avg_mshr_miss_latency::.cpu.data 24204.376855                       # average WriteReq mshr miss latency
system.cpu.dcache.WriteReq_avg_mshr_miss_latency::total 24204.376855                       # average WriteReq mshr miss latency
system.cpu.dcache.SoftPFReq_hits::.cpu.data          246                       # number of SoftPFReq hits
system.cpu.dcache.SoftPFReq_hits::total           246                       # number of SoftPFReq hits
system.cpu.dcache.SoftPFReq_misses::.cpu.data          202                       # number of SoftPFReq misses
system.cpu.dcache.SoftPFReq_misses::total          202                       # number of SoftPFReq misses
system.cpu.dcache.SoftPFReq_accesses::.cpu.data          448                       # number of SoftPFReq accesses(hits+misses)
system.cpu.dcache.SoftPFReq_accesses::total          448                       # number of SoftPFReq accesses(hits+misses)
system.cpu.dcache.SoftPFReq_miss_rate::.cpu.data     0.450893                       # miss rate for SoftPFReq accesses
system.cpu.dcache.SoftPFReq_miss_rate::total     0.450893                       # miss rate for SoftPFReq accesses
system.cpu.dcache.SoftPFReq_mshr_misses::.cpu.data          106                       # number of SoftPFReq MSHR misses
system.cpu.dcache.SoftPFReq_mshr_misses::total          106                       # number of SoftPFReq MSHR misses
system.cpu.dcache.SoftPFReq_mshr_miss_latency::.cpu.data      6140000                       # number of SoftPFReq MSHR miss cycles
system.cpu.dcache.SoftPFReq_mshr_miss_latency::total      6140000                       # number of SoftPFReq MSHR miss cycles
system.cpu.dcache.SoftPFReq_mshr_miss_rate::.cpu.data     0.236607                       # mshr miss rate for SoftPFReq accesses
system.cpu.dcache.SoftPFReq_mshr_miss_rate::total     0.236607                       # mshr miss rate for SoftPFReq accesses
system.cpu.dcache.SoftPFReq_avg_mshr_miss_latency::.cpu.data 57924.528302                       # average SoftPFReq mshr miss latency
system.cpu.dcache.SoftPFReq_avg_mshr_miss_latency::total 57924.528302                       # average SoftPFReq mshr miss latency
system.cpu.dcache.tags.pwrStateResidencyTicks::UNDEFINED  57055078000                       # Cumulative time (in ticks) in various power states
system.cpu.dcache.tags.tagsinuse            31.996788                       # Cycle average of tags in use
system.cpu.dcache.tags.total_refs             5219172                       # Total number of references to valid blocks.
system.cpu.dcache.tags.sampled_refs            445316                       # Sample count of references to valid blocks.
system.cpu.dcache.tags.avg_refs             11.720154                       # Average number of references to valid blocks.
system.cpu.dcache.tags.warmup_cycle            162000                       # Cycle when the warmup percentage was hit.
system.cpu.dcache.tags.occ_blocks::.cpu.data    31.996788                       # Average occupied blocks per requestor
system.cpu.dcache.tags.occ_percent::.cpu.data     0.999900                       # Average percentage of cache occupancy
system.cpu.dcache.tags.occ_percent::total     0.999900                       # Average percentage of cache occupancy
system.cpu.dcache.tags.occ_task_id_blocks::1024           32                       # Occupied blocks per task id
system.cpu.dcache.tags.age_task_id_blocks_1024::0           21                       # Occupied blocks per task id
system.cpu.dcache.tags.age_task_id_blocks_1024::1           11                       # Occupied blocks per task id
system.cpu.dcache.tags.occ_task_id_percent::1024            1                       # Percentage of cache occupancy per task id
system.cpu.dcache.tags.tag_accesses           5664584                       # Number of tag accesses
system.cpu.dcache.tags.data_accesses          5664584                       # Number of data accesses

---------- End Simulation Statistics   ----------
