
---------- Begin Simulation Statistics ----------
final_tick                                50501689000                       # Number of ticks from beginning of simulation (restored from checkpoints and never reset)
host_inst_rate                                 833020                       # Simulator instruction rate (inst/s)
host_mem_usage                                 684548                       # Number of bytes of host memory used
host_op_rate                                  1474073                       # Simulator op (including micro ops) rate (op/s)
host_seconds                                    29.18                       # Real time elapsed on the host
host_tick_rate                             1730655639                       # Simulator tick rate (ticks/s)
sim_freq                                 1000000000000                       # Frequency of simulated ticks
sim_insts                                    24307985                       # Number of instructions simulated
sim_ops                                      43014418                       # Number of ops (including micro ops) simulated
sim_seconds                                  0.050502                       # Number of seconds simulated
sim_ticks                                 50501689000                       # Number of ticks simulated
system.cpu.Branches                           1784595                       # Number of branches fetched
system.cpu.committedInsts                    24307985                       # Number of instructions committed
system.cpu.committedOps                      43014418                       # Number of ops (including micro ops) committed
system.cpu.dtb.rdAccesses                     5153312                       # TLB accesses on read requests
system.cpu.dtb.rdMisses                            16                       # TLB misses on read requests
system.cpu.dtb.wrAccesses                       67076                       # TLB accesses on write requests
system.cpu.dtb.wrMisses                            16                       # TLB misses on write requests
system.cpu.idle_fraction                     0.000000                       # Percentage of idle cycles
system.cpu.itb.rdAccesses                           0                       # TLB accesses on read requests
system.cpu.itb.rdMisses                             0                       # TLB misses on read requests
system.cpu.itb.wrAccesses                    29674979                       # TLB accesses on write requests
system.cpu.itb.wrMisses                            55                       # TLB misses on write requests
system.cpu.not_idle_fraction                 1.000000                       # Percentage of non-idle cycles
system.cpu.numCycles                        101003378                       # number of cpu cycles simulated
system.cpu.numWorkItemsCompleted                    0                       # number of work items this cpu completed
system.cpu.numWorkItemsStarted                      0                       # number of work items this cpu started
system.cpu.num_busy_cycles               101003377.998000                       # Number of busy cycles
system.cpu.num_cc_register_reads              9219669                       # number of times the CC registers were read
system.cpu.num_cc_register_writes            23716538                       # number of times the CC registers were written
system.cpu.num_conditional_control_insts      1772651                       # number of instructions that are conditional controls
system.cpu.num_fp_alu_accesses                  88162                       # Number of float alu accesses
system.cpu.num_fp_insts                         88162                       # number of float instructions
system.cpu.num_fp_register_reads               138086                       # number of times the floating registers were read
system.cpu.num_fp_register_writes               76741                       # number of times the floating registers were written
system.cpu.num_func_calls                        3646                       # number of times a function call or return occured
system.cpu.num_idle_cycles                   0.002000                       # Number of idle cycles
system.cpu.num_int_alu_accesses              42831872                       # Number of integer alu accesses
system.cpu.num_int_insts                     42831872                       # number of integer instructions
system.cpu.num_int_register_reads            84417793                       # number of times the integer registers were read
system.cpu.num_int_register_writes           44342158                       # number of times the integer registers were written
system.cpu.num_load_insts                     5153085                       # Number of load instructions
system.cpu.num_mem_refs                       5219940                       # number of memory refs
system.cpu.num_store_insts                      66855                       # Number of store instructions
system.cpu.num_vec_alu_accesses                     0                       # Number of vector alu accesses
system.cpu.num_vec_insts                            0                       # number of vector instructions
system.cpu.num_vec_register_reads                   0                       # number of times the vector registers were read
system.cpu.num_vec_register_writes                  0                       # number of times the vector registers were written
system.cpu.op_class::No_OpClass                123871      0.29%      0.29% # Class of executed instruction
system.cpu.op_class::IntAlu                  34300206     79.74%     80.03% # Class of executed instruction
system.cpu.op_class::IntMult                  3272661      7.61%     87.64% # Class of executed instruction
system.cpu.op_class::IntDiv                     50585      0.12%     87.75% # Class of executed instruction
system.cpu.op_class::FloatAdd                    8129      0.02%     87.77% # Class of executed instruction
system.cpu.op_class::FloatCmp                       0      0.00%     87.77% # Class of executed instruction
system.cpu.op_class::FloatCvt                       0      0.00%     87.77% # Class of executed instruction
system.cpu.op_class::FloatMult                      0      0.00%     87.77% # Class of executed instruction
system.cpu.op_class::FloatMultAcc                   0      0.00%     87.77% # Class of executed instruction
system.cpu.op_class::FloatDiv                       0      0.00%     87.77% # Class of executed instruction
system.cpu.op_class::FloatMisc                      0      0.00%     87.77% # Class of executed instruction
system.cpu.op_class::FloatSqrt                      0      0.00%     87.77% # Class of executed instruction
system.cpu.op_class::SimdAdd                      374      0.00%     87.77% # Class of executed instruction
system.cpu.op_class::SimdAddAcc                     0      0.00%     87.77% # Class of executed instruction
system.cpu.op_class::SimdAlu                     4064      0.01%     87.78% # Class of executed instruction
system.cpu.op_class::SimdCmp                        0      0.00%     87.78% # Class of executed instruction
system.cpu.op_class::SimdCvt                      128      0.00%     87.78% # Class of executed instruction
system.cpu.op_class::SimdMisc                    5418      0.01%     87.80% # Class of executed instruction
system.cpu.op_class::SimdMult                       0      0.00%     87.80% # Class of executed instruction
system.cpu.op_class::SimdMultAcc                    0      0.00%     87.80% # Class of executed instruction
system.cpu.op_class::SimdShift                    186      0.00%     87.80% # Class of executed instruction
system.cpu.op_class::SimdShiftAcc                   0      0.00%     87.80% # Class of executed instruction
system.cpu.op_class::SimdDiv                        0      0.00%     87.80% # Class of executed instruction
system.cpu.op_class::SimdSqrt                       0      0.00%     87.80% # Class of executed instruction
system.cpu.op_class::SimdFloatAdd               12512      0.03%     87.82% # Class of executed instruction
system.cpu.op_class::SimdFloatAlu                   0      0.00%     87.82% # Class of executed instruction
system.cpu.op_class::SimdFloatCmp                   0      0.00%     87.82% # Class of executed instruction
system.cpu.op_class::SimdFloatCvt                4945      0.01%     87.84% # Class of executed instruction
system.cpu.op_class::SimdFloatDiv                 738      0.00%     87.84% # Class of executed instruction
system.cpu.op_class::SimdFloatMisc                  0      0.00%     87.84% # Class of executed instruction
system.cpu.op_class::SimdFloatMult              11557      0.03%     87.86% # Class of executed instruction
system.cpu.op_class::SimdFloatMultAcc               0      0.00%     87.86% # Class of executed instruction
system.cpu.op_class::SimdFloatSqrt                  0      0.00%     87.86% # Class of executed instruction
system.cpu.op_class::SimdReduceAdd                  0      0.00%     87.86% # Class of executed instruction
system.cpu.op_class::SimdReduceAlu                  0      0.00%     87.86% # Class of executed instruction
system.cpu.op_class::SimdReduceCmp                  0      0.00%     87.86% # Class of executed instruction
system.cpu.op_class::SimdFloatReduceAdd             0      0.00%     87.86% # Class of executed instruction
system.cpu.op_class::SimdFloatReduceCmp             0      0.00%     87.86% # Class of executed instruction
system.cpu.op_class::SimdAes                        0      0.00%     87.86% # Class of executed instruction
system.cpu.op_class::SimdAesMix                     0      0.00%     87.86% # Class of executed instruction
system.cpu.op_class::SimdSha1Hash                   0      0.00%     87.86% # Class of executed instruction
system.cpu.op_class::SimdSha1Hash2                  0      0.00%     87.86% # Class of executed instruction
system.cpu.op_class::SimdSha256Hash                 0      0.00%     87.86% # Class of executed instruction
system.cpu.op_class::SimdSha256Hash2                0      0.00%     87.86% # Class of executed instruction
system.cpu.op_class::SimdShaSigma2                  0      0.00%     87.86% # Class of executed instruction
system.cpu.op_class::SimdShaSigma3                  0      0.00%     87.86% # Class of executed instruction
system.cpu.op_class::SimdPredAlu                    0      0.00%     87.86% # Class of executed instruction
system.cpu.op_class::MemRead                  5134419     11.94%     99.80% # Class of executed instruction
system.cpu.op_class::MemWrite                   62132      0.14%     99.95% # Class of executed instruction
system.cpu.op_class::FloatMemRead               18666      0.04%     99.99% # Class of executed instruction
system.cpu.op_class::FloatMemWrite               4723      0.01%    100.00% # Class of executed instruction
system.cpu.op_class::IprAccess                      0      0.00%    100.00% # Class of executed instruction
system.cpu.op_class::InstPrefetch                   0      0.00%    100.00% # Class of executed instruction
system.cpu.op_class::total                   43015314                       # Class of executed instruction
system.cpu.workload.numSyscalls                    17                       # Number of system calls
system.membus.snoop_filter.hit_multi_requests            0                       # Number of requests hitting in the snoop filter with multiple (>1) holders of the requested data.
system.membus.snoop_filter.hit_multi_snoops            0                       # Number of snoops hitting in the snoop filter with multiple (>1) holders of the requested data.
system.membus.snoop_filter.hit_single_requests       353619                       # Number of requests hitting in the snoop filter with a single holder of the requested data.
system.membus.snoop_filter.hit_single_snoops            0                       # Number of snoops hitting in the snoop filter with a single holder of the requested data.
system.membus.snoop_filter.tot_requests        707366                       # Total number of requests made to the snoop filter.
system.membus.snoop_filter.tot_snoops               0                       # Total number of snoops made to the snoop filter.
system.membus.pwrStateResidencyTicks::UNDEFINED  50501689000                       # Cumulative time (in ticks) in various power states
system.membus.trans_dist::ReadResp             347453                       # Transaction distribution
system.membus.trans_dist::WritebackDirty        17876                       # Transaction distribution
system.membus.trans_dist::WritebackClean          958                       # Transaction distribution
system.membus.trans_dist::CleanEvict           334785                       # Transaction distribution
system.membus.trans_dist::ReadExReq              6294                       # Transaction distribution
system.membus.trans_dist::ReadExResp             6294                       # Transaction distribution
system.membus.trans_dist::ReadCleanReq           1022                       # Transaction distribution
system.membus.trans_dist::ReadSharedReq        346431                       # Transaction distribution
system.membus.pkt_count_system.cpu.icache.mem_side::system.mem_ctrls.port         3002                       # Packet count per connected master and slave (bytes)
system.membus.pkt_count_system.cpu.icache.mem_side::total         3002                       # Packet count per connected master and slave (bytes)
system.membus.pkt_count_system.cpu.dcache.mem_side::system.mem_ctrls.port      1058111                       # Packet count per connected master and slave (bytes)
system.membus.pkt_count_system.cpu.dcache.mem_side::total      1058111                       # Packet count per connected master and slave (bytes)
system.membus.pkt_count::total                1061113                       # Packet count per connected master and slave (bytes)
system.membus.pkt_size_system.cpu.icache.mem_side::system.mem_ctrls.port       126720                       # Cumulative packet size per connected master and slave (bytes)
system.membus.pkt_size_system.cpu.icache.mem_side::total       126720                       # Cumulative packet size per connected master and slave (bytes)
system.membus.pkt_size_system.cpu.dcache.mem_side::system.mem_ctrls.port     23718464                       # Cumulative packet size per connected master and slave (bytes)
system.membus.pkt_size_system.cpu.dcache.mem_side::total     23718464                       # Cumulative packet size per connected master and slave (bytes)
system.membus.pkt_size::total                23845184                       # Cumulative packet size per connected master and slave (bytes)
system.membus.snoops                                0                       # Total snoops (count)
system.membus.snoopTraffic                          0                       # Total snoop traffic (bytes)
system.membus.snoop_fanout::samples            353747                       # Request fanout histogram
system.membus.snoop_fanout::mean                    0                       # Request fanout histogram
system.membus.snoop_fanout::stdev                   0                       # Request fanout histogram
system.membus.snoop_fanout::underflows              0      0.00%      0.00% # Request fanout histogram
system.membus.snoop_fanout::0                  353747    100.00%    100.00% # Request fanout histogram
system.membus.snoop_fanout::1                       0      0.00%    100.00% # Request fanout histogram
system.membus.snoop_fanout::2                       0      0.00%    100.00% # Request fanout histogram
system.membus.snoop_fanout::3                       0      0.00%    100.00% # Request fanout histogram
system.membus.snoop_fanout::4                       0      0.00%    100.00% # Request fanout histogram
system.membus.snoop_fanout::overflows               0      0.00%    100.00% # Request fanout histogram
system.membus.snoop_fanout::min_value               0                       # Request fanout histogram
system.membus.snoop_fanout::max_value               0                       # Request fanout histogram
system.membus.snoop_fanout::total              353747                       # Request fanout histogram
system.membus.reqLayer2.occupancy           782824500                       # Layer occupancy (ticks)
system.membus.reqLayer2.utilization               1.6                       # Layer utilization (%)
system.membus.respLayer1.occupancy            5445000                       # Layer occupancy (ticks)
system.membus.respLayer1.utilization              0.0                       # Layer utilization (%)
system.membus.respLayer2.occupancy         1828192500                       # Layer occupancy (ticks)
system.membus.respLayer2.utilization              3.6                       # Layer utilization (%)
system.voltage_domain.voltage                       1                       # Voltage in Volts
system.clk_domain.clock                          1000                       # Clock period in ticks
system.cpu_voltage_domain.voltage                   1                       # Voltage in Volts
system.mem_ctrls.pwrStateResidencyTicks::UNDEFINED  50501689000                       # Cumulative time (in ticks) in various power states
system.mem_ctrls.bytes_read::.cpu.inst          65408                       # Number of bytes read from this memory
system.mem_ctrls.bytes_read::.cpu.data       22574400                       # Number of bytes read from this memory
system.mem_ctrls.bytes_read::total           22639808                       # Number of bytes read from this memory
system.mem_ctrls.bytes_inst_read::.cpu.inst        65408                       # Number of instructions bytes read from this memory
system.mem_ctrls.bytes_inst_read::total         65408                       # Number of instructions bytes read from this memory
system.mem_ctrls.bytes_written::.writebacks      1144064                       # Number of bytes written to this memory
system.mem_ctrls.bytes_written::total         1144064                       # Number of bytes written to this memory
system.mem_ctrls.num_reads::.cpu.inst            1022                       # Number of read requests responded to by this memory
system.mem_ctrls.num_reads::.cpu.data          352725                       # Number of read requests responded to by this memory
system.mem_ctrls.num_reads::total              353747                       # Number of read requests responded to by this memory
system.mem_ctrls.num_writes::.writebacks        17876                       # Number of write requests responded to by this memory
system.mem_ctrls.num_writes::total              17876                       # Number of write requests responded to by this memory
system.mem_ctrls.bw_read::.cpu.inst           1295165                       # Total read bandwidth from this memory (bytes/s)
system.mem_ctrls.bw_read::.cpu.data         447002872                       # Total read bandwidth from this memory (bytes/s)
system.mem_ctrls.bw_read::total             448298036                       # Total read bandwidth from this memory (bytes/s)
system.mem_ctrls.bw_inst_read::.cpu.inst      1295165                       # Instruction read bandwidth from this memory (bytes/s)
system.mem_ctrls.bw_inst_read::total          1295165                       # Instruction read bandwidth from this memory (bytes/s)
system.mem_ctrls.bw_write::.writebacks       22653975                       # Write bandwidth from this memory (bytes/s)
system.mem_ctrls.bw_write::total             22653975                       # Write bandwidth from this memory (bytes/s)
system.mem_ctrls.bw_total::.writebacks       22653975                       # Total bandwidth to/from this memory (bytes/s)
system.mem_ctrls.bw_total::.cpu.inst          1295165                       # Total bandwidth to/from this memory (bytes/s)
system.mem_ctrls.bw_total::.cpu.data        447002872                       # Total bandwidth to/from this memory (bytes/s)
system.mem_ctrls.bw_total::total            470952011                       # Total bandwidth to/from this memory (bytes/s)
system.mem_ctrls.avgPriority_.writebacks::samples      2568.00                       # Average QoS priority value for accepted requests
system.mem_ctrls.avgPriority_.cpu.inst::samples       966.00                       # Average QoS priority value for accepted requests
system.mem_ctrls.avgPriority_.cpu.data::samples    238188.00                       # Average QoS priority value for accepted requests
system.mem_ctrls.priorityMinLatency      0.000000018750                       # per QoS priority minimum request to response latency (s)
system.mem_ctrls.priorityMaxLatency      0.070922561250                       # per QoS priority maximum request to response latency (s)
system.mem_ctrls.numReadWriteTurnArounds          157                       # Number of turnarounds from READ to WRITE
system.mem_ctrls.numWriteReadTurnArounds          157                       # Number of turnarounds from WRITE to READ
system.mem_ctrls.numStayReadState              509938                       # Number of times bus staying in READ state
system.mem_ctrls.numStayWriteState               2389                       # Number of times bus staying in WRITE state
system.mem_ctrls.readReqs                      353747                       # Number of read requests accepted
system.mem_ctrls.writeReqs                      18834                       # Number of write requests accepted
system.mem_ctrls.readBursts                    353747                       # Number of DRAM read bursts, including those serviced by the write queue
system.mem_ctrls.writeBursts                    18834                       # Number of DRAM write bursts, including those merged in the write queue
system.mem_ctrls.servicedByWrQ                 114593                       # Number of DRAM read bursts serviced by the write queue
system.mem_ctrls.mergedWrBursts                 16266                       # Number of DRAM write bursts merged with an existing one
system.mem_ctrls.neitherReadNorWriteReqs            0                       # Number of requests that are neither read nor write
system.mem_ctrls.perBankRdBursts::0               129                       # Per bank write bursts
system.mem_ctrls.perBankRdBursts::1                28                       # Per bank write bursts
system.mem_ctrls.perBankRdBursts::2                 7                       # Per bank write bursts
system.mem_ctrls.perBankRdBursts::3               136                       # Per bank write bursts
system.mem_ctrls.perBankRdBursts::4               496                       # Per bank write bursts
system.mem_ctrls.perBankRdBursts::5               164                       # Per bank write bursts
system.mem_ctrls.perBankRdBursts::6               219                       # Per bank write bursts
system.mem_ctrls.perBankRdBursts::7            165317                       # Per bank write bursts
system.mem_ctrls.perBankRdBursts::8               654                       # Per bank write bursts
system.mem_ctrls.perBankRdBursts::9              1757                       # Per bank write bursts
system.mem_ctrls.perBankRdBursts::10            63733                       # Per bank write bursts
system.mem_ctrls.perBankRdBursts::11             6360                       # Per bank write bursts
system.mem_ctrls.perBankRdBursts::12               56                       # Per bank write bursts
system.mem_ctrls.perBankRdBursts::13               56                       # Per bank write bursts
system.mem_ctrls.perBankRdBursts::14                7                       # Per bank write bursts
system.mem_ctrls.perBankRdBursts::15               35                       # Per bank write bursts
system.mem_ctrls.perBankWrBursts::0               102                       # Per bank write bursts
system.mem_ctrls.perBankWrBursts::1                26                       # Per bank write bursts
system.mem_ctrls.perBankWrBursts::2                 0                       # Per bank write bursts
system.mem_ctrls.perBankWrBursts::3               102                       # Per bank write bursts
system.mem_ctrls.perBankWrBursts::4               179                       # Per bank write bursts
system.mem_ctrls.perBankWrBursts::5                95                       # Per bank write bursts
system.mem_ctrls.perBankWrBursts::6               177                       # Per bank write bursts
system.mem_ctrls.perBankWrBursts::7               112                       # Per bank write bursts
system.mem_ctrls.perBankWrBursts::8                14                       # Per bank write bursts
system.mem_ctrls.perBankWrBursts::9               287                       # Per bank write bursts
system.mem_ctrls.perBankWrBursts::10              786                       # Per bank write bursts
system.mem_ctrls.perBankWrBursts::11              505                       # Per bank write bursts
system.mem_ctrls.perBankWrBursts::12               53                       # Per bank write bursts
system.mem_ctrls.perBankWrBursts::13               56                       # Per bank write bursts
system.mem_ctrls.perBankWrBursts::14                7                       # Per bank write bursts
system.mem_ctrls.perBankWrBursts::15               35                       # Per bank write bursts
system.mem_ctrls.avgRdQLen                       1.00                       # Average read queue length when enqueuing
system.mem_ctrls.avgWrQLen                      25.06                       # Average write queue length when enqueuing
system.mem_ctrls.totQLat                   1237376500                       # Total ticks spent queuing
system.mem_ctrls.totBusLat                 1195770000                       # Total ticks spent in databus transfers
system.mem_ctrls.totMemAccLat              5721514000                       # Total ticks spent from burst creation until serviced by the DRAM
system.mem_ctrls.avgQLat                      5173.97                       # Average queueing delay per DRAM burst
system.mem_ctrls.avgBusLat                    5000.00                       # Average bus latency per DRAM burst
system.mem_ctrls.avgMemAccLat                23923.97                       # Average memory access latency per DRAM burst
system.mem_ctrls.numRdRetry                         0                       # Number of times read queue was full causing retry
system.mem_ctrls.numWrRetry                         0                       # Number of times write queue was full causing retry
system.mem_ctrls.readRowHits                   216321                       # Number of row buffer hits during reads
system.mem_ctrls.writeRowHits                    2185                       # Number of row buffer hits during writes
system.mem_ctrls.readRowHitRate                 90.45                       # Row buffer hit rate for reads
system.mem_ctrls.writeRowHitRate                85.09                       # Row buffer hit rate for writes
system.mem_ctrls.readPktSize::0                     0                       # Read request sizes (log2)
system.mem_ctrls.readPktSize::1                     0                       # Read request sizes (log2)
system.mem_ctrls.readPktSize::2                     0                       # Read request sizes (log2)
system.mem_ctrls.readPktSize::3                     0                       # Read request sizes (log2)
system.mem_ctrls.readPktSize::4                     0                       # Read request sizes (log2)
system.mem_ctrls.readPktSize::5                     0                       # Read request sizes (log2)
system.mem_ctrls.readPktSize::6                353747                       # Read request sizes (log2)
system.mem_ctrls.writePktSize::0                    0                       # Write request sizes (log2)
system.mem_ctrls.writePktSize::1                    0                       # Write request sizes (log2)
system.mem_ctrls.writePktSize::2                    0                       # Write request sizes (log2)
system.mem_ctrls.writePktSize::3                    0                       # Write request sizes (log2)
system.mem_ctrls.writePktSize::4                    0                       # Write request sizes (log2)
system.mem_ctrls.writePktSize::5                    0                       # Write request sizes (log2)
system.mem_ctrls.writePktSize::6                18834                       # Write request sizes (log2)
system.mem_ctrls.rdQLenPdf::0                  239023                       # What read queue length does an incoming req see
system.mem_ctrls.rdQLenPdf::1                     130                       # What read queue length does an incoming req see
system.mem_ctrls.rdQLenPdf::2                       1                       # What read queue length does an incoming req see
system.mem_ctrls.rdQLenPdf::3                       0                       # What read queue length does an incoming req see
system.mem_ctrls.rdQLenPdf::4                       0                       # What read queue length does an incoming req see
system.mem_ctrls.rdQLenPdf::5                       0                       # What read queue length does an incoming req see
system.mem_ctrls.rdQLenPdf::6                       0                       # What read queue length does an incoming req see
system.mem_ctrls.rdQLenPdf::7                       0                       # What read queue length does an incoming req see
system.mem_ctrls.rdQLenPdf::8                       0                       # What read queue length does an incoming req see
system.mem_ctrls.rdQLenPdf::9                       0                       # What read queue length does an incoming req see
system.mem_ctrls.rdQLenPdf::10                      0                       # What read queue length does an incoming req see
system.mem_ctrls.rdQLenPdf::11                      0                       # What read queue length does an incoming req see
system.mem_ctrls.rdQLenPdf::12                      0                       # What read queue length does an incoming req see
system.mem_ctrls.rdQLenPdf::13                      0                       # What read queue length does an incoming req see
system.mem_ctrls.rdQLenPdf::14                      0                       # What read queue length does an incoming req see
system.mem_ctrls.rdQLenPdf::15                      0                       # What read queue length does an incoming req see
system.mem_ctrls.rdQLenPdf::16                      0                       # What read queue length does an incoming req see
system.mem_ctrls.rdQLenPdf::17                      0                       # What read queue length does an incoming req see
system.mem_ctrls.rdQLenPdf::18                      0                       # What read queue length does an incoming req see
system.mem_ctrls.rdQLenPdf::19                      0                       # What read queue length does an incoming req see
system.mem_ctrls.rdQLenPdf::20                      0                       # What read queue length does an incoming req see
system.mem_ctrls.rdQLenPdf::21                      0                       # What read queue length does an incoming req see
system.mem_ctrls.rdQLenPdf::22                      0                       # What read queue length does an incoming req see
system.mem_ctrls.rdQLenPdf::23                      0                       # What read queue length does an incoming req see
system.mem_ctrls.rdQLenPdf::24                      0                       # What read queue length does an incoming req see
system.mem_ctrls.rdQLenPdf::25                      0                       # What read queue length does an incoming req see
system.mem_ctrls.rdQLenPdf::26                      0                       # What read queue length does an incoming req see
system.mem_ctrls.rdQLenPdf::27                      0                       # What read queue length does an incoming req see
system.mem_ctrls.rdQLenPdf::28                      0                       # What read queue length does an incoming req see
system.mem_ctrls.rdQLenPdf::29                      0                       # What read queue length does an incoming req see
system.mem_ctrls.rdQLenPdf::30                      0                       # What read queue length does an incoming req see
system.mem_ctrls.rdQLenPdf::31                      0                       # What read queue length does an incoming req see
system.mem_ctrls.wrQLenPdf::0                       1                       # What write queue length does an incoming req see
system.mem_ctrls.wrQLenPdf::1                       1                       # What write queue length does an incoming req see
system.mem_ctrls.wrQLenPdf::2                       1                       # What write queue length does an incoming req see
system.mem_ctrls.wrQLenPdf::3                       1                       # What write queue length does an incoming req see
system.mem_ctrls.wrQLenPdf::4                       1                       # What write queue length does an incoming req see
system.mem_ctrls.wrQLenPdf::5                       1                       # What write queue length does an incoming req see
system.mem_ctrls.wrQLenPdf::6                       1                       # What write queue length does an incoming req see
system.mem_ctrls.wrQLenPdf::7                       1                       # What write queue length does an incoming req see
system.mem_ctrls.wrQLenPdf::8                       1                       # What write queue length does an incoming req see
system.mem_ctrls.wrQLenPdf::9                       1                       # What write queue length does an incoming req see
system.mem_ctrls.wrQLenPdf::10                      1                       # What write queue length does an incoming req see
system.mem_ctrls.wrQLenPdf::11                      1                       # What write queue length does an incoming req see
system.mem_ctrls.wrQLenPdf::12                      1                       # What write queue length does an incoming req see
system.mem_ctrls.wrQLenPdf::13                      1                       # What write queue length does an incoming req see
system.mem_ctrls.wrQLenPdf::14                      1                       # What write queue length does an incoming req see
system.mem_ctrls.wrQLenPdf::15                     12                       # What write queue length does an incoming req see
system.mem_ctrls.wrQLenPdf::16                     12                       # What write queue length does an incoming req see
system.mem_ctrls.wrQLenPdf::17                    150                       # What write queue length does an incoming req see
system.mem_ctrls.wrQLenPdf::18                    159                       # What write queue length does an incoming req see
system.mem_ctrls.wrQLenPdf::19                    159                       # What write queue length does an incoming req see
system.mem_ctrls.wrQLenPdf::20                    158                       # What write queue length does an incoming req see
system.mem_ctrls.wrQLenPdf::21                    159                       # What write queue length does an incoming req see
system.mem_ctrls.wrQLenPdf::22                    159                       # What write queue length does an incoming req see
system.mem_ctrls.wrQLenPdf::23                    158                       # What write queue length does an incoming req see
system.mem_ctrls.wrQLenPdf::24                    159                       # What write queue length does an incoming req see
system.mem_ctrls.wrQLenPdf::25                    159                       # What write queue length does an incoming req see
system.mem_ctrls.wrQLenPdf::26                    160                       # What write queue length does an incoming req see
system.mem_ctrls.wrQLenPdf::27                    159                       # What write queue length does an incoming req see
system.mem_ctrls.wrQLenPdf::28                    159                       # What write queue length does an incoming req see
system.mem_ctrls.wrQLenPdf::29                    158                       # What write queue length does an incoming req see
system.mem_ctrls.wrQLenPdf::30                    158                       # What write queue length does an incoming req see
system.mem_ctrls.wrQLenPdf::31                    158                       # What write queue length does an incoming req see
system.mem_ctrls.wrQLenPdf::32                    157                       # What write queue length does an incoming req see
system.mem_ctrls.wrQLenPdf::33                      0                       # What write queue length does an incoming req see
system.mem_ctrls.wrQLenPdf::34                      0                       # What write queue length does an incoming req see
system.mem_ctrls.wrQLenPdf::35                      0                       # What write queue length does an incoming req see
system.mem_ctrls.wrQLenPdf::36                      0                       # What write queue length does an incoming req see
system.mem_ctrls.wrQLenPdf::37                      0                       # What write queue length does an incoming req see
system.mem_ctrls.wrQLenPdf::38                      0                       # What write queue length does an incoming req see
system.mem_ctrls.wrQLenPdf::39                      0                       # What write queue length does an incoming req see
system.mem_ctrls.wrQLenPdf::40                      0                       # What write queue length does an incoming req see
system.mem_ctrls.wrQLenPdf::41                      0                       # What write queue length does an incoming req see
system.mem_ctrls.wrQLenPdf::42                      0                       # What write queue length does an incoming req see
system.mem_ctrls.wrQLenPdf::43                      0                       # What write queue length does an incoming req see
system.mem_ctrls.wrQLenPdf::44                      0                       # What write queue length does an incoming req see
system.mem_ctrls.wrQLenPdf::45                      0                       # What write queue length does an incoming req see
system.mem_ctrls.wrQLenPdf::46                      0                       # What write queue length does an incoming req see
system.mem_ctrls.wrQLenPdf::47                      0                       # What write queue length does an incoming req see
system.mem_ctrls.wrQLenPdf::48                      0                       # What write queue length does an incoming req see
system.mem_ctrls.wrQLenPdf::49                      0                       # What write queue length does an incoming req see
system.mem_ctrls.wrQLenPdf::50                      0                       # What write queue length does an incoming req see
system.mem_ctrls.wrQLenPdf::51                      0                       # What write queue length does an incoming req see
system.mem_ctrls.wrQLenPdf::52                      0                       # What write queue length does an incoming req see
system.mem_ctrls.wrQLenPdf::53                      0                       # What write queue length does an incoming req see
system.mem_ctrls.wrQLenPdf::54                      0                       # What write queue length does an incoming req see
system.mem_ctrls.wrQLenPdf::55                      0                       # What write queue length does an incoming req see
system.mem_ctrls.wrQLenPdf::56                      0                       # What write queue length does an incoming req see
system.mem_ctrls.wrQLenPdf::57                      0                       # What write queue length does an incoming req see
system.mem_ctrls.wrQLenPdf::58                      0                       # What write queue length does an incoming req see
system.mem_ctrls.wrQLenPdf::59                      0                       # What write queue length does an incoming req see
system.mem_ctrls.wrQLenPdf::60                      0                       # What write queue length does an incoming req see
system.mem_ctrls.wrQLenPdf::61                      0                       # What write queue length does an incoming req see
system.mem_ctrls.wrQLenPdf::62                      0                       # What write queue length does an incoming req see
system.mem_ctrls.wrQLenPdf::63                      0                       # What write queue length does an incoming req see
system.mem_ctrls.bytesPerActivate::samples        23184                       # Bytes accessed per row activation
system.mem_ctrls.bytesPerActivate::mean    667.191166                       # Bytes accessed per row activation
system.mem_ctrls.bytesPerActivate::gmean   479.253094                       # Bytes accessed per row activation
system.mem_ctrls.bytesPerActivate::stdev   395.394612                       # Bytes accessed per row activation
system.mem_ctrls.bytesPerActivate::0-127         2360     10.18%     10.18% # Bytes accessed per row activation
system.mem_ctrls.bytesPerActivate::128-255         3411     14.71%     24.89% # Bytes accessed per row activation
system.mem_ctrls.bytesPerActivate::256-383         2139      9.23%     34.12% # Bytes accessed per row activation
system.mem_ctrls.bytesPerActivate::384-511         1045      4.51%     38.63% # Bytes accessed per row activation
system.mem_ctrls.bytesPerActivate::512-639          682      2.94%     41.57% # Bytes accessed per row activation
system.mem_ctrls.bytesPerActivate::640-767          683      2.95%     44.51% # Bytes accessed per row activation
system.mem_ctrls.bytesPerActivate::768-895          764      3.30%     47.81% # Bytes accessed per row activation
system.mem_ctrls.bytesPerActivate::896-1023         1035      4.46%     52.27% # Bytes accessed per row activation
system.mem_ctrls.bytesPerActivate::1024-1151        11065     47.73%    100.00% # Bytes accessed per row activation
system.mem_ctrls.bytesPerActivate::total        23184                       # Bytes accessed per row activation
system.mem_ctrls.rdPerTurnAround::samples          157                       # Reads before turning the bus around for writes
system.mem_ctrls.rdPerTurnAround::mean    1523.178344                       # Reads before turning the bus around for writes
system.mem_ctrls.rdPerTurnAround::gmean     33.106668                       # Reads before turning the bus around for writes
system.mem_ctrls.rdPerTurnAround::stdev   7649.075477                       # Reads before turning the bus around for writes
system.mem_ctrls.rdPerTurnAround::0-2047          150     95.54%     95.54% # Reads before turning the bus around for writes
system.mem_ctrls.rdPerTurnAround::12288-14335            1      0.64%     96.18% # Reads before turning the bus around for writes
system.mem_ctrls.rdPerTurnAround::14336-16383            1      0.64%     96.82% # Reads before turning the bus around for writes
system.mem_ctrls.rdPerTurnAround::18432-20479            1      0.64%     97.45% # Reads before turning the bus around for writes
system.mem_ctrls.rdPerTurnAround::32768-34815            1      0.64%     98.09% # Reads before turning the bus around for writes
system.mem_ctrls.rdPerTurnAround::38912-40959            1      0.64%     98.73% # Reads before turning the bus around for writes
system.mem_ctrls.rdPerTurnAround::49152-51199            1      0.64%     99.36% # Reads before turning the bus around for writes
system.mem_ctrls.rdPerTurnAround::55296-57343            1      0.64%    100.00% # Reads before turning the bus around for writes
system.mem_ctrls.rdPerTurnAround::total           157                       # Reads before turning the bus around for writes
system.mem_ctrls.wrPerTurnAround::samples          157                       # Writes before turning the bus around for reads
system.mem_ctrls.wrPerTurnAround::mean      16.152866                       # Writes before turning the bus around for reads
system.mem_ctrls.wrPerTurnAround::gmean     16.143699                       # Writes before turning the bus around for reads
system.mem_ctrls.wrPerTurnAround::stdev      0.568011                       # Writes before turning the bus around for reads
system.mem_ctrls.wrPerTurnAround::16              146     92.99%     92.99% # Writes before turning the bus around for reads
system.mem_ctrls.wrPerTurnAround::18                9      5.73%     98.73% # Writes before turning the bus around for reads
system.mem_ctrls.wrPerTurnAround::19                2      1.27%    100.00% # Writes before turning the bus around for reads
system.mem_ctrls.wrPerTurnAround::total           157                       # Writes before turning the bus around for reads
system.mem_ctrls.bytesReadDRAM               15305856                       # Total number of bytes read from DRAM
system.mem_ctrls.bytesReadWrQ                 7333952                       # Total number of bytes read from write queue
system.mem_ctrls.bytesWritten                  162304                       # Total number of bytes written to DRAM
system.mem_ctrls.bytesReadSys                22639808                       # Total read bytes from the system interface side
system.mem_ctrls.bytesWrittenSys              1205376                       # Total written bytes from the system interface side
system.mem_ctrls.avgRdBW                       303.08                       # Average DRAM read bandwidth in MiByte/s
system.mem_ctrls.avgWrBW                         3.21                       # Average achieved write bandwidth in MiByte/s
system.mem_ctrls.avgRdBWSys                    448.30                       # Average system read bandwidth in MiByte/s
system.mem_ctrls.avgWrBWSys                     23.87                       # Average system write bandwidth in MiByte/s
system.mem_ctrls.peakBW                      12800.00                       # Theoretical peak bandwidth in MiByte/s
system.mem_ctrls.busUtil                         2.39                       # Data bus utilization in percentage
system.mem_ctrls.busUtilRead                     2.37                       # Data bus utilization in percentage for reads
system.mem_ctrls.busUtilWrite                    0.03                       # Data bus utilization in percentage for writes
system.mem_ctrls.totGap                   50501674000                       # Total gap between requests
system.mem_ctrls.avgGap                     135545.49                       # Average gap between requests
system.mem_ctrls.masterReadBytes::.cpu.inst        61824                       # Per-master bytes read from memory
system.mem_ctrls.masterReadBytes::.cpu.data     15244032                       # Per-master bytes read from memory
system.mem_ctrls.masterWriteBytes::.writebacks       162304                       # Per-master bytes write to memory
system.mem_ctrls.masterReadRate::.cpu.inst 1224196.679837777279                       # Per-master bytes read from memory rate (Bytes/sec)
system.mem_ctrls.masterReadRate::.cpu.data 301851924.200000524521                       # Per-master bytes read from memory rate (Bytes/sec)
system.mem_ctrls.masterWriteRate::.writebacks 3213833.105661079753                       # Per-master bytes write to memory rate (Bytes/sec)
system.mem_ctrls.masterReadAccesses::.cpu.inst         1022                       # Per-master read serviced memory accesses
system.mem_ctrls.masterReadAccesses::.cpu.data       352725                       # Per-master read serviced memory accesses
system.mem_ctrls.masterWriteAccesses::.writebacks        18834                       # Per-master write serviced memory accesses
system.mem_ctrls.masterReadTotalLat::.cpu.inst     30425000                       # Per-master read total memory access latency
system.mem_ctrls.masterReadTotalLat::.cpu.data   5691089000                       # Per-master read total memory access latency
system.mem_ctrls.masterWriteTotalLat::.writebacks 1239678677500                       # Per-master write total memory access latency
system.mem_ctrls.masterReadAvgLat::.cpu.inst     29770.06                       # Per-master read average memory access latency
system.mem_ctrls.masterReadAvgLat::.cpu.data     16134.63                       # Per-master read average memory access latency
system.mem_ctrls.masterWriteAvgLat::.writebacks  65821316.63                       # Per-master write average memory access latency
system.mem_ctrls.pageHitRate                    90.40                       # Row buffer hit rate, read and write combined
system.mem_ctrls.rank1.actEnergy             61032720                       # Energy for activate commands per rank (pJ)
system.mem_ctrls.rank1.preEnergy             32439660                       # Energy for precharge commands per rank (pJ)
system.mem_ctrls.rank1.readEnergy           518778120                       # Energy for read commands per rank (pJ)
system.mem_ctrls.rank1.writeEnergy            9098460                       # Energy for write commands per rank (pJ)
system.mem_ctrls.rank1.refreshEnergy     3986555040.000000                       # Energy for refresh commands per rank (pJ)
system.mem_ctrls.rank1.actBackEnergy      14307555750                       # Energy for active background per rank (pJ)
system.mem_ctrls.rank1.preBackEnergy       7344252960                       # Energy for precharge background per rank (pJ)
system.mem_ctrls.rank1.actPowerDownEnergy            0                       # Energy for active power-down per rank (pJ)
system.mem_ctrls.rank1.prePowerDownEnergy            0                       # Energy for precharge power-down per rank (pJ)
system.mem_ctrls.rank1.selfRefreshEnergy            0                       # Energy for self refresh per rank (pJ)
system.mem_ctrls.rank1.totalEnergy        26259712710                       # Total energy per rank (pJ)
system.mem_ctrls.rank1.averagePower        519.976920                       # Core power per rank (mW)
system.mem_ctrls.rank1.totalIdleTime                0                       # Total Idle time Per DRAM Rank
system.mem_ctrls.rank1.memoryStateTime::IDLE  18925361250                       # Time in different power states
system.mem_ctrls.rank1.memoryStateTime::REF   1686157750                       # Time in different power states
system.mem_ctrls.rank1.memoryStateTime::SREF            0                       # Time in different power states
system.mem_ctrls.rank1.memoryStateTime::PRE_PDN            0                       # Time in different power states
system.mem_ctrls.rank1.memoryStateTime::ACT  29890170000                       # Time in different power states
system.mem_ctrls.rank1.memoryStateTime::ACT_PDN            0                       # Time in different power states
system.mem_ctrls.rank0.actEnergy            104501040                       # Energy for activate commands per rank (pJ)
system.mem_ctrls.rank0.preEnergy             55543620                       # Energy for precharge commands per rank (pJ)
system.mem_ctrls.rank0.readEnergy          1188781440                       # Energy for read commands per rank (pJ)
system.mem_ctrls.rank0.writeEnergy            4139460                       # Energy for write commands per rank (pJ)
system.mem_ctrls.rank0.refreshEnergy     3986555040.000000                       # Energy for refresh commands per rank (pJ)
system.mem_ctrls.rank0.actBackEnergy      21806926620                       # Energy for active background per rank (pJ)
system.mem_ctrls.rank0.preBackEnergy       1029004320                       # Energy for precharge background per rank (pJ)
system.mem_ctrls.rank0.actPowerDownEnergy            0                       # Energy for active power-down per rank (pJ)
system.mem_ctrls.rank0.prePowerDownEnergy            0                       # Energy for precharge power-down per rank (pJ)
system.mem_ctrls.rank0.selfRefreshEnergy            0                       # Energy for self refresh per rank (pJ)
system.mem_ctrls.rank0.totalEnergy        28175451540                       # Total energy per rank (pJ)
system.mem_ctrls.rank0.averagePower        557.911074                       # Core power per rank (mW)
system.mem_ctrls.rank0.totalIdleTime                0                       # Total Idle time Per DRAM Rank
system.mem_ctrls.rank0.memoryStateTime::IDLE   2396422000                       # Time in different power states
system.mem_ctrls.rank0.memoryStateTime::REF   1686129500                       # Time in different power states
system.mem_ctrls.rank0.memoryStateTime::SREF            0                       # Time in different power states
system.mem_ctrls.rank0.memoryStateTime::PRE_PDN            0                       # Time in different power states
system.mem_ctrls.rank0.memoryStateTime::ACT  46419137500                       # Time in different power states
system.mem_ctrls.rank0.memoryStateTime::ACT_PDN            0                       # Time in different power states
system.cpu_clk_domain.clock                       500                       # Clock period in ticks
system.cpu.numPwrStateTransitions                   1                       # Number of power state transitions
system.cpu.pwrStateResidencyTicks::ON     50501689000                       # Cumulative time (in ticks) in various power states
system.cpu.icache.pwrStateResidencyTicks::UNDEFINED  50501689000                       # Cumulative time (in ticks) in various power states
system.cpu.icache.demand_hits::.cpu.inst     29673957                       # number of demand (read+write) hits
system.cpu.icache.demand_hits::total         29673957                       # number of demand (read+write) hits
system.cpu.icache.overall_hits::.cpu.inst     29673957                       # number of overall hits
system.cpu.icache.overall_hits::total        29673957                       # number of overall hits
system.cpu.icache.demand_misses::.cpu.inst         1022                       # number of demand (read+write) misses
system.cpu.icache.demand_misses::total           1022                       # number of demand (read+write) misses
system.cpu.icache.overall_misses::.cpu.inst         1022                       # number of overall misses
system.cpu.icache.overall_misses::total          1022                       # number of overall misses
system.cpu.icache.demand_miss_latency::.cpu.inst     63181500                       # number of demand (read+write) miss cycles
system.cpu.icache.demand_miss_latency::total     63181500                       # number of demand (read+write) miss cycles
system.cpu.icache.overall_miss_latency::.cpu.inst     63181500                       # number of overall miss cycles
system.cpu.icache.overall_miss_latency::total     63181500                       # number of overall miss cycles
system.cpu.icache.demand_accesses::.cpu.inst     29674979                       # number of demand (read+write) accesses
system.cpu.icache.demand_accesses::total     29674979                       # number of demand (read+write) accesses
system.cpu.icache.overall_accesses::.cpu.inst     29674979                       # number of overall (read+write) accesses
system.cpu.icache.overall_accesses::total     29674979                       # number of overall (read+write) accesses
system.cpu.icache.demand_miss_rate::.cpu.inst     0.000034                       # miss rate for demand accesses
system.cpu.icache.demand_miss_rate::total     0.000034                       # miss rate for demand accesses
system.cpu.icache.overall_miss_rate::.cpu.inst     0.000034                       # miss rate for overall accesses
system.cpu.icache.overall_miss_rate::total     0.000034                       # miss rate for overall accesses
system.cpu.icache.demand_avg_miss_latency::.cpu.inst 61821.428571                       # average overall miss latency
system.cpu.icache.demand_avg_miss_latency::total 61821.428571                       # average overall miss latency
system.cpu.icache.overall_avg_miss_latency::.cpu.inst 61821.428571                       # average overall miss latency
system.cpu.icache.overall_avg_miss_latency::total 61821.428571                       # average overall miss latency
system.cpu.icache.blocked_cycles::no_mshrs            0                       # number of cycles access was blocked
system.cpu.icache.blocked_cycles::no_targets            0                       # number of cycles access was blocked
system.cpu.icache.blocked::no_mshrs                 0                       # number of cycles access was blocked
system.cpu.icache.blocked::no_targets               0                       # number of cycles access was blocked
system.cpu.icache.avg_blocked_cycles::no_mshrs          nan                       # average number of cycles each access was blocked
system.cpu.icache.avg_blocked_cycles::no_targets          nan                       # average number of cycles each access was blocked
system.cpu.icache.writebacks::.writebacks          958                       # number of writebacks
system.cpu.icache.writebacks::total               958                       # number of writebacks
system.cpu.icache.demand_mshr_misses::.cpu.inst         1022                       # number of demand (read+write) MSHR misses
system.cpu.icache.demand_mshr_misses::total         1022                       # number of demand (read+write) MSHR misses
system.cpu.icache.overall_mshr_misses::.cpu.inst         1022                       # number of overall MSHR misses
system.cpu.icache.overall_mshr_misses::total         1022                       # number of overall MSHR misses
system.cpu.icache.demand_mshr_miss_latency::.cpu.inst     62159500                       # number of demand (read+write) MSHR miss cycles
system.cpu.icache.demand_mshr_miss_latency::total     62159500                       # number of demand (read+write) MSHR miss cycles
system.cpu.icache.overall_mshr_miss_latency::.cpu.inst     62159500                       # number of overall MSHR miss cycles
system.cpu.icache.overall_mshr_miss_latency::total     62159500                       # number of overall MSHR miss cycles
system.cpu.icache.demand_mshr_miss_rate::.cpu.inst     0.000034                       # mshr miss rate for demand accesses
system.cpu.icache.demand_mshr_miss_rate::total     0.000034                       # mshr miss rate for demand accesses
system.cpu.icache.overall_mshr_miss_rate::.cpu.inst     0.000034                       # mshr miss rate for overall accesses
system.cpu.icache.overall_mshr_miss_rate::total     0.000034                       # mshr miss rate for overall accesses
system.cpu.icache.demand_avg_mshr_miss_latency::.cpu.inst 60821.428571                       # average overall mshr miss latency
system.cpu.icache.demand_avg_mshr_miss_latency::total 60821.428571                       # average overall mshr miss latency
system.cpu.icache.overall_avg_mshr_miss_latency::.cpu.inst 60821.428571                       # average overall mshr miss latency
system.cpu.icache.overall_avg_mshr_miss_latency::total 60821.428571                       # average overall mshr miss latency
system.cpu.icache.replacements                    958                       # number of replacements
system.cpu.icache.ReadReq_hits::.cpu.inst     29673957                       # number of ReadReq hits
system.cpu.icache.ReadReq_hits::total        29673957                       # number of ReadReq hits
system.cpu.icache.ReadReq_misses::.cpu.inst         1022                       # number of ReadReq misses
system.cpu.icache.ReadReq_misses::total          1022                       # number of ReadReq misses
system.cpu.icache.ReadReq_miss_latency::.cpu.inst     63181500                       # number of ReadReq miss cycles
system.cpu.icache.ReadReq_miss_latency::total     63181500                       # number of ReadReq miss cycles
system.cpu.icache.ReadReq_accesses::.cpu.inst     29674979                       # number of ReadReq accesses(hits+misses)
system.cpu.icache.ReadReq_accesses::total     29674979                       # number of ReadReq accesses(hits+misses)
system.cpu.icache.ReadReq_miss_rate::.cpu.inst     0.000034                       # miss rate for ReadReq accesses
system.cpu.icache.ReadReq_miss_rate::total     0.000034                       # miss rate for ReadReq accesses
system.cpu.icache.ReadReq_avg_miss_latency::.cpu.inst 61821.428571                       # average ReadReq miss latency
system.cpu.icache.ReadReq_avg_miss_latency::total 61821.428571                       # average ReadReq miss latency
system.cpu.icache.ReadReq_mshr_misses::.cpu.inst         1022                       # number of ReadReq MSHR misses
system.cpu.icache.ReadReq_mshr_misses::total         1022                       # number of ReadReq MSHR misses
system.cpu.icache.ReadReq_mshr_miss_latency::.cpu.inst     62159500                       # number of ReadReq MSHR miss cycles
system.cpu.icache.ReadReq_mshr_miss_latency::total     62159500                       # number of ReadReq MSHR miss cycles
system.cpu.icache.ReadReq_mshr_miss_rate::.cpu.inst     0.000034                       # mshr miss rate for ReadReq accesses
system.cpu.icache.ReadReq_mshr_miss_rate::total     0.000034                       # mshr miss rate for ReadReq accesses
system.cpu.icache.ReadReq_avg_mshr_miss_latency::.cpu.inst 60821.428571                       # average ReadReq mshr miss latency
system.cpu.icache.ReadReq_avg_mshr_miss_latency::total 60821.428571                       # average ReadReq mshr miss latency
system.cpu.icache.tags.pwrStateResidencyTicks::UNDEFINED  50501689000                       # Cumulative time (in ticks) in various power states
system.cpu.icache.tags.tagsinuse            63.993182                       # Cycle average of tags in use
system.cpu.icache.tags.total_refs            29674979                       # Total number of references to valid blocks.
system.cpu.icache.tags.sampled_refs              1022                       # Sample count of references to valid blocks.
system.cpu.icache.tags.avg_refs          29036.182975                       # Average number of references to valid blocks.
system.cpu.icache.tags.warmup_cycle             77000                       # Cycle when the warmup percentage was hit.
system.cpu.icache.tags.occ_blocks::.cpu.inst    63.993182                       # Average occupied blocks per requestor
system.cpu.icache.tags.occ_percent::.cpu.inst     0.999893                       # Average percentage of cache occupancy
system.cpu.icache.tags.occ_percent::total     0.999893                       # Average percentage of cache occupancy
system.cpu.icache.tags.occ_task_id_blocks::1024           64                       # Occupied blocks per task id
system.cpu.icache.tags.age_task_id_blocks_1024::0           47                       # Occupied blocks per task id
system.cpu.icache.tags.age_task_id_blocks_1024::1           17                       # Occupied blocks per task id
system.cpu.icache.tags.occ_task_id_percent::1024            1                       # Percentage of cache occupancy per task id
system.cpu.icache.tags.tag_accesses          59350980                       # Number of tag accesses
system.cpu.icache.tags.data_accesses         59350980                       # Number of data accesses
system.cpu.dtb.walker.pwrStateResidencyTicks::UNDEFINED  50501689000                       # Cumulative time (in ticks) in various power states
system.cpu.interrupts.clk_domain.clock           8000                       # Clock period in ticks
system.cpu.itb_walker_cache.pwrStateResidencyTicks::UNDEFINED  50501689000                       # Cumulative time (in ticks) in various power states
system.cpu.itb_walker_cache.blocked_cycles::no_mshrs            0                       # number of cycles access was blocked
system.cpu.itb_walker_cache.blocked_cycles::no_targets            0                       # number of cycles access was blocked
system.cpu.itb_walker_cache.blocked::no_mshrs            0                       # number of cycles access was blocked
system.cpu.itb_walker_cache.blocked::no_targets            0                       # number of cycles access was blocked
system.cpu.itb_walker_cache.avg_blocked_cycles::no_mshrs          nan                       # average number of cycles each access was blocked
system.cpu.itb_walker_cache.avg_blocked_cycles::no_targets          nan                       # average number of cycles each access was blocked
system.cpu.itb_walker_cache.replacements            0                       # number of replacements
system.cpu.itb_walker_cache.tags.pwrStateResidencyTicks::UNDEFINED  50501689000                       # Cumulative time (in ticks) in various power states
system.cpu.itb_walker_cache.tags.tagsinuse            0                       # Cycle average of tags in use
system.cpu.itb_walker_cache.tags.total_refs            0                       # Total number of references to valid blocks.
system.cpu.itb_walker_cache.tags.sampled_refs            0                       # Sample count of references to valid blocks.
system.cpu.itb_walker_cache.tags.avg_refs          nan                       # Average number of references to valid blocks.
system.cpu.itb_walker_cache.tags.warmup_cycle            0                       # Cycle when the warmup percentage was hit.
system.cpu.itb_walker_cache.tags.tag_accesses            0                       # Number of tag accesses
system.cpu.itb_walker_cache.tags.data_accesses            0                       # Number of data accesses
system.cpu.itb.walker.pwrStateResidencyTicks::UNDEFINED  50501689000                       # Cumulative time (in ticks) in various power states
system.cpu.dtb_walker_cache.pwrStateResidencyTicks::UNDEFINED  50501689000                       # Cumulative time (in ticks) in various power states
system.cpu.dtb_walker_cache.blocked_cycles::no_mshrs            0                       # number of cycles access was blocked
system.cpu.dtb_walker_cache.blocked_cycles::no_targets            0                       # number of cycles access was blocked
system.cpu.dtb_walker_cache.blocked::no_mshrs            0                       # number of cycles access was blocked
system.cpu.dtb_walker_cache.blocked::no_targets            0                       # number of cycles access was blocked
system.cpu.dtb_walker_cache.avg_blocked_cycles::no_mshrs          nan                       # average number of cycles each access was blocked
system.cpu.dtb_walker_cache.avg_blocked_cycles::no_targets          nan                       # average number of cycles each access was blocked
system.cpu.dtb_walker_cache.replacements            0                       # number of replacements
system.cpu.dtb_walker_cache.tags.pwrStateResidencyTicks::UNDEFINED  50501689000                       # Cumulative time (in ticks) in various power states
system.cpu.dtb_walker_cache.tags.tagsinuse            0                       # Cycle average of tags in use
system.cpu.dtb_walker_cache.tags.total_refs            0                       # Total number of references to valid blocks.
system.cpu.dtb_walker_cache.tags.sampled_refs            0                       # Sample count of references to valid blocks.
system.cpu.dtb_walker_cache.tags.avg_refs          nan                       # Average number of references to valid blocks.
system.cpu.dtb_walker_cache.tags.warmup_cycle            0                       # Cycle when the warmup percentage was hit.
system.cpu.dtb_walker_cache.tags.tag_accesses            0                       # Number of tag accesses
system.cpu.dtb_walker_cache.tags.data_accesses            0                       # Number of data accesses
system.cpu.dcache.pwrStateResidencyTicks::UNDEFINED  50501689000                       # Cumulative time (in ticks) in various power states
system.cpu.dcache.demand_hits::.cpu.data      4866524                       # number of demand (read+write) hits
system.cpu.dcache.demand_hits::total          4866524                       # number of demand (read+write) hits
system.cpu.dcache.overall_hits::.cpu.data      4866767                       # number of overall hits
system.cpu.dcache.overall_hits::total         4866767                       # number of overall hits
system.cpu.dcache.demand_misses::.cpu.data       352520                       # number of demand (read+write) misses
system.cpu.dcache.demand_misses::total         352520                       # number of demand (read+write) misses
system.cpu.dcache.overall_misses::.cpu.data       352725                       # number of overall misses
system.cpu.dcache.overall_misses::total        352725                       # number of overall misses
system.cpu.dcache.demand_miss_latency::.cpu.data  15892643500                       # number of demand (read+write) miss cycles
system.cpu.dcache.demand_miss_latency::total  15892643500                       # number of demand (read+write) miss cycles
system.cpu.dcache.overall_miss_latency::.cpu.data  15892643500                       # number of overall miss cycles
system.cpu.dcache.overall_miss_latency::total  15892643500                       # number of overall miss cycles
system.cpu.dcache.demand_accesses::.cpu.data      5219044                       # number of demand (read+write) accesses
system.cpu.dcache.demand_accesses::total      5219044                       # number of demand (read+write) accesses
system.cpu.dcache.overall_accesses::.cpu.data      5219492                       # number of overall (read+write) accesses
system.cpu.dcache.overall_accesses::total      5219492                       # number of overall (read+write) accesses
system.cpu.dcache.demand_miss_rate::.cpu.data     0.067545                       # miss rate for demand accesses
system.cpu.dcache.demand_miss_rate::total     0.067545                       # miss rate for demand accesses
system.cpu.dcache.overall_miss_rate::.cpu.data     0.067578                       # miss rate for overall accesses
system.cpu.dcache.overall_miss_rate::total     0.067578                       # miss rate for overall accesses
system.cpu.dcache.demand_avg_miss_latency::.cpu.data 45082.955577                       # average overall miss latency
system.cpu.dcache.demand_avg_miss_latency::total 45082.955577                       # average overall miss latency
system.cpu.dcache.overall_avg_miss_latency::.cpu.data 45056.753845                       # average overall miss latency
system.cpu.dcache.overall_avg_miss_latency::total 45056.753845                       # average overall miss latency
system.cpu.dcache.blocked_cycles::no_mshrs            0                       # number of cycles access was blocked
system.cpu.dcache.blocked_cycles::no_targets            0                       # number of cycles access was blocked
system.cpu.dcache.blocked::no_mshrs                 0                       # number of cycles access was blocked
system.cpu.dcache.blocked::no_targets               0                       # number of cycles access was blocked
system.cpu.dcache.avg_blocked_cycles::no_mshrs          nan                       # average number of cycles each access was blocked
system.cpu.dcache.avg_blocked_cycles::no_targets          nan                       # average number of cycles each access was blocked
system.cpu.dcache.writebacks::.writebacks        17876                       # number of writebacks
system.cpu.dcache.writebacks::total             17876                       # number of writebacks
system.cpu.dcache.demand_mshr_misses::.cpu.data       352520                       # number of demand (read+write) MSHR misses
system.cpu.dcache.demand_mshr_misses::total       352520                       # number of demand (read+write) MSHR misses
system.cpu.dcache.overall_mshr_misses::.cpu.data       352725                       # number of overall MSHR misses
system.cpu.dcache.overall_mshr_misses::total       352725                       # number of overall MSHR misses
system.cpu.dcache.demand_mshr_miss_latency::.cpu.data  15540123500                       # number of demand (read+write) MSHR miss cycles
system.cpu.dcache.demand_mshr_miss_latency::total  15540123500                       # number of demand (read+write) MSHR miss cycles
system.cpu.dcache.overall_mshr_miss_latency::.cpu.data  15551458500                       # number of overall MSHR miss cycles
system.cpu.dcache.overall_mshr_miss_latency::total  15551458500                       # number of overall MSHR miss cycles
system.cpu.dcache.demand_mshr_miss_rate::.cpu.data     0.067545                       # mshr miss rate for demand accesses
system.cpu.dcache.demand_mshr_miss_rate::total     0.067545                       # mshr miss rate for demand accesses
system.cpu.dcache.overall_mshr_miss_rate::.cpu.data     0.067578                       # mshr miss rate for overall accesses
system.cpu.dcache.overall_mshr_miss_rate::total     0.067578                       # mshr miss rate for overall accesses
system.cpu.dcache.demand_avg_mshr_miss_latency::.cpu.data 44082.955577                       # average overall mshr miss latency
system.cpu.dcache.demand_avg_mshr_miss_latency::total 44082.955577                       # average overall mshr miss latency
system.cpu.dcache.overall_avg_mshr_miss_latency::.cpu.data 44089.470551                       # average overall mshr miss latency
system.cpu.dcache.overall_avg_mshr_miss_latency::total 44089.470551                       # average overall mshr miss latency
system.cpu.dcache.replacements                 352661                       # number of replacements
system.cpu.dcache.ReadReq_hits::.cpu.data      4806638                       # number of ReadReq hits
system.cpu.dcache.ReadReq_hits::total         4806638                       # number of ReadReq hits
system.cpu.dcache.ReadReq_misses::.cpu.data       346226                       # number of ReadReq misses
system.cpu.dcache.ReadReq_misses::total        346226                       # number of ReadReq misses
system.cpu.dcache.ReadReq_miss_latency::.cpu.data  15724165500                       # number of ReadReq miss cycles
system.cpu.dcache.ReadReq_miss_latency::total  15724165500                       # number of ReadReq miss cycles
system.cpu.dcache.ReadReq_accesses::.cpu.data      5152864                       # number of ReadReq accesses(hits+misses)
system.cpu.dcache.ReadReq_accesses::total      5152864                       # number of ReadReq accesses(hits+misses)
system.cpu.dcache.ReadReq_miss_rate::.cpu.data     0.067191                       # miss rate for ReadReq accesses
system.cpu.dcache.ReadReq_miss_rate::total     0.067191                       # miss rate for ReadReq accesses
system.cpu.dcache.ReadReq_avg_miss_latency::.cpu.data 45415.900308                       # average ReadReq miss latency
system.cpu.dcache.ReadReq_avg_miss_latency::total 45415.900308                       # average ReadReq miss latency
system.cpu.dcache.ReadReq_mshr_misses::.cpu.data       346226                       # number of ReadReq MSHR misses
system.cpu.dcache.ReadReq_mshr_misses::total       346226                       # number of ReadReq MSHR misses
system.cpu.dcache.ReadReq_mshr_miss_latency::.cpu.data  15377939500                       # number of ReadReq MSHR miss cycles
system.cpu.dcache.ReadReq_mshr_miss_latency::total  15377939500                       # number of ReadReq MSHR miss cycles
system.cpu.dcache.ReadReq_mshr_miss_rate::.cpu.data     0.067191                       # mshr miss rate for ReadReq accesses
system.cpu.dcache.ReadReq_mshr_miss_rate::total     0.067191                       # mshr miss rate for ReadReq accesses
system.cpu.dcache.ReadReq_avg_mshr_miss_latency::.cpu.data 44415.900308                       # average ReadReq mshr miss latency
system.cpu.dcache.ReadReq_avg_mshr_miss_latency::total 44415.900308                       # average ReadReq mshr miss latency
system.cpu.dcache.WriteReq_hits::.cpu.data        59886                       # number of WriteReq hits
system.cpu.dcache.WriteReq_hits::total          59886                       # number of WriteReq hits
system.cpu.dcache.WriteReq_misses::.cpu.data         6294                       # number of WriteReq misses
system.cpu.dcache.WriteReq_misses::total         6294                       # number of WriteReq misses
system.cpu.dcache.WriteReq_miss_latency::.cpu.data    168478000                       # number of WriteReq miss cycles
system.cpu.dcache.WriteReq_miss_latency::total    168478000                       # number of WriteReq miss cycles
system.cpu.dcache.WriteReq_accesses::.cpu.data        66180                       # number of WriteReq accesses(hits+misses)
system.cpu.dcache.WriteReq_accesses::total        66180                       # number of WriteReq accesses(hits+misses)
system.cpu.dcache.WriteReq_miss_rate::.cpu.data     0.095104                       # miss rate for WriteReq accesses
system.cpu.dcache.WriteReq_miss_rate::total     0.095104                       # miss rate for WriteReq accesses
system.cpu.dcache.WriteReq_avg_miss_latency::.cpu.data 26768.033047                       # average WriteReq miss latency
system.cpu.dcache.WriteReq_avg_miss_latency::total 26768.033047                       # average WriteReq miss latency
system.cpu.dcache.WriteReq_mshr_misses::.cpu.data         6294                       # number of WriteReq MSHR misses
system.cpu.dcache.WriteReq_mshr_misses::total         6294                       # number of WriteReq MSHR misses
system.cpu.dcache.WriteReq_mshr_miss_latency::.cpu.data    162184000                       # number of WriteReq MSHR miss cycles
system.cpu.dcache.WriteReq_mshr_miss_latency::total    162184000                       # number of WriteReq MSHR miss cycles
system.cpu.dcache.WriteReq_mshr_miss_rate::.cpu.data     0.095104                       # mshr miss rate for WriteReq accesses
system.cpu.dcache.WriteReq_mshr_miss_rate::total     0.095104                       # mshr miss rate for WriteReq accesses
system.cpu.dcache.WriteReq_avg_mshr_miss_latency::.cpu.data 25768.033047                       # average WriteReq mshr miss latency
system.cpu.dcache.WriteReq_avg_mshr_miss_latency::total 25768.033047                       # average WriteReq mshr miss latency
system.cpu.dcache.SoftPFReq_hits::.cpu.data          243                       # number of SoftPFReq hits
system.cpu.dcache.SoftPFReq_hits::total           243                       # number of SoftPFReq hits
system.cpu.dcache.SoftPFReq_misses::.cpu.data          205                       # number of SoftPFReq misses
system.cpu.dcache.SoftPFReq_misses::total          205                       # number of SoftPFReq misses
system.cpu.dcache.SoftPFReq_accesses::.cpu.data          448                       # number of SoftPFReq accesses(hits+misses)
system.cpu.dcache.SoftPFReq_accesses::total          448                       # number of SoftPFReq accesses(hits+misses)
system.cpu.dcache.SoftPFReq_miss_rate::.cpu.data     0.457589                       # miss rate for SoftPFReq accesses
system.cpu.dcache.SoftPFReq_miss_rate::total     0.457589                       # miss rate for SoftPFReq accesses
system.cpu.dcache.SoftPFReq_mshr_misses::.cpu.data          205                       # number of SoftPFReq MSHR misses
system.cpu.dcache.SoftPFReq_mshr_misses::total          205                       # number of SoftPFReq MSHR misses
system.cpu.dcache.SoftPFReq_mshr_miss_latency::.cpu.data     11335000                       # number of SoftPFReq MSHR miss cycles
system.cpu.dcache.SoftPFReq_mshr_miss_latency::total     11335000                       # number of SoftPFReq MSHR miss cycles
system.cpu.dcache.SoftPFReq_mshr_miss_rate::.cpu.data     0.457589                       # mshr miss rate for SoftPFReq accesses
system.cpu.dcache.SoftPFReq_mshr_miss_rate::total     0.457589                       # mshr miss rate for SoftPFReq accesses
system.cpu.dcache.SoftPFReq_avg_mshr_miss_latency::.cpu.data 55292.682927                       # average SoftPFReq mshr miss latency
system.cpu.dcache.SoftPFReq_avg_mshr_miss_latency::total 55292.682927                       # average SoftPFReq mshr miss latency
system.cpu.dcache.tags.pwrStateResidencyTicks::UNDEFINED  50501689000                       # Cumulative time (in ticks) in various power states
system.cpu.dcache.tags.tagsinuse            63.986110                       # Cycle average of tags in use
system.cpu.dcache.tags.total_refs             5219492                       # Total number of references to valid blocks.
system.cpu.dcache.tags.sampled_refs            352725                       # Sample count of references to valid blocks.
system.cpu.dcache.tags.avg_refs             14.797624                       # Average number of references to valid blocks.
system.cpu.dcache.tags.warmup_cycle            148000                       # Cycle when the warmup percentage was hit.
system.cpu.dcache.tags.occ_blocks::.cpu.data    63.986110                       # Average occupied blocks per requestor
system.cpu.dcache.tags.occ_percent::.cpu.data     0.999783                       # Average percentage of cache occupancy
system.cpu.dcache.tags.occ_percent::total     0.999783                       # Average percentage of cache occupancy
system.cpu.dcache.tags.occ_task_id_blocks::1024           64                       # Occupied blocks per task id
system.cpu.dcache.tags.age_task_id_blocks_1024::0           31                       # Occupied blocks per task id
system.cpu.dcache.tags.age_task_id_blocks_1024::1           33                       # Occupied blocks per task id
system.cpu.dcache.tags.occ_task_id_percent::1024            1                       # Percentage of cache occupancy per task id
system.cpu.dcache.tags.tag_accesses           5572217                       # Number of tag accesses
system.cpu.dcache.tags.data_accesses          5572217                       # Number of data accesses

---------- End Simulation Statistics   ----------
