
---------- Begin Simulation Statistics ----------
final_tick                                36037717000                       # Number of ticks from beginning of simulation (restored from checkpoints and never reset)
host_inst_rate                                 934692                       # Simulator instruction rate (inst/s)
host_mem_usage                                 684548                       # Number of bytes of host memory used
host_op_rate                                  1653987                       # Simulator op (including micro ops) rate (op/s)
host_seconds                                    26.01                       # Real time elapsed on the host
host_tick_rate                             1385718143                       # Simulator tick rate (ticks/s)
sim_freq                                 1000000000000                       # Frequency of simulated ticks
sim_insts                                    24307985                       # Number of instructions simulated
sim_ops                                      43014418                       # Number of ops (including micro ops) simulated
sim_seconds                                  0.036038                       # Number of seconds simulated
sim_ticks                                 36037717000                       # Number of ticks simulated
system.cpu.Branches                           1784595                       # Number of branches fetched
system.cpu.committedInsts                    24307985                       # Number of instructions committed
system.cpu.committedOps                      43014418                       # Number of ops (including micro ops) committed
system.cpu.dtb.rdAccesses                     5153312                       # TLB accesses on read requests
system.cpu.dtb.rdMisses                            16                       # TLB misses on read requests
system.cpu.dtb.wrAccesses                       67076                       # TLB accesses on write requests
system.cpu.dtb.wrMisses                            16                       # TLB misses on write requests
system.cpu.idle_fraction                     0.000000                       # Percentage of idle cycles
system.cpu.itb.rdAccesses                           0                       # TLB accesses on read requests
system.cpu.itb.rdMisses                             0                       # TLB misses on read requests
system.cpu.itb.wrAccesses                    29674979                       # TLB accesses on write requests
system.cpu.itb.wrMisses                            55                       # TLB misses on write requests
system.cpu.not_idle_fraction                 1.000000                       # Percentage of non-idle cycles
system.cpu.numCycles                         72075434                       # number of cpu cycles simulated
system.cpu.numWorkItemsCompleted                    0                       # number of work items this cpu completed
system.cpu.numWorkItemsStarted                      0                       # number of work items this cpu started
system.cpu.num_busy_cycles               72075433.998000                       # Number of busy cycles
system.cpu.num_cc_register_reads              9219669                       # number of times the CC registers were read
system.cpu.num_cc_register_writes            23716538                       # number of times the CC registers were written
system.cpu.num_conditional_control_insts      1772651                       # number of instructions that are conditional controls
system.cpu.num_fp_alu_accesses                  88162                       # Number of float alu accesses
system.cpu.num_fp_insts                         88162                       # number of float instructions
system.cpu.num_fp_register_reads               138086                       # number of times the floating registers were read
system.cpu.num_fp_register_writes               76741                       # number of times the floating registers were written
system.cpu.num_func_calls                        3646                       # number of times a function call or return occured
system.cpu.num_idle_cycles                   0.002000                       # Number of idle cycles
system.cpu.num_int_alu_accesses              42831872                       # Number of integer alu accesses
system.cpu.num_int_insts                     42831872                       # number of integer instructions
system.cpu.num_int_register_reads            84417793                       # number of times the integer registers were read
system.cpu.num_int_register_writes           44342158                       # number of times the integer registers were written
system.cpu.num_load_insts                     5153085                       # Number of load instructions
system.cpu.num_mem_refs                       5219940                       # number of memory refs
system.cpu.num_store_insts                      66855                       # Number of store instructions
system.cpu.num_vec_alu_accesses                     0                       # Number of vector alu accesses
system.cpu.num_vec_insts                            0                       # number of vector instructions
system.cpu.num_vec_register_reads                   0                       # number of times the vector registers were read
system.cpu.num_vec_register_writes                  0                       # number of times the vector registers were written
system.cpu.op_class::No_OpClass                123871      0.29%      0.29% # Class of executed instruction
system.cpu.op_class::IntAlu                  34300206     79.74%     80.03% # Class of executed instruction
system.cpu.op_class::IntMult                  3272661      7.61%     87.64% # Class of executed instruction
system.cpu.op_class::IntDiv                     50585      0.12%     87.75% # Class of executed instruction
system.cpu.op_class::FloatAdd                    8129      0.02%     87.77% # Class of executed instruction
system.cpu.op_class::FloatCmp                       0      0.00%     87.77% # Class of executed instruction
system.cpu.op_class::FloatCvt                       0      0.00%     87.77% # Class of executed instruction
system.cpu.op_class::FloatMult                      0      0.00%     87.77% # Class of executed instruction
system.cpu.op_class::FloatMultAcc                   0      0.00%     87.77% # Class of executed instruction
system.cpu.op_class::FloatDiv                       0      0.00%     87.77% # Class of executed instruction
system.cpu.op_class::FloatMisc                      0      0.00%     87.77% # Class of executed instruction
system.cpu.op_class::FloatSqrt                      0      0.00%     87.77% # Class of executed instruction
system.cpu.op_class::SimdAdd                      374      0.00%     87.77% # Class of executed instruction
system.cpu.op_class::SimdAddAcc                     0      0.00%     87.77% # Class of executed instruction
system.cpu.op_class::SimdAlu                     4064      0.01%     87.78% # Class of executed instruction
system.cpu.op_class::SimdCmp                        0      0.00%     87.78% # Class of executed instruction
system.cpu.op_class::SimdCvt                      128      0.00%     87.78% # Class of executed instruction
system.cpu.op_class::SimdMisc                    5418      0.01%     87.80% # Class of executed instruction
system.cpu.op_class::SimdMult                       0      0.00%     87.80% # Class of executed instruction
system.cpu.op_class::SimdMultAcc                    0      0.00%     87.80% # Class of executed instruction
system.cpu.op_class::SimdShift                    186      0.00%     87.80% # Class of executed instruction
system.cpu.op_class::SimdShiftAcc                   0      0.00%     87.80% # Class of executed instruction
system.cpu.op_class::SimdDiv                        0      0.00%     87.80% # Class of executed instruction
system.cpu.op_class::SimdSqrt                       0      0.00%     87.80% # Class of executed instruction
system.cpu.op_class::SimdFloatAdd               12512      0.03%     87.82% # Class of executed instruction
system.cpu.op_class::SimdFloatAlu                   0      0.00%     87.82% # Class of executed instruction
system.cpu.op_class::SimdFloatCmp                   0      0.00%     87.82% # Class of executed instruction
system.cpu.op_class::SimdFloatCvt                4945      0.01%     87.84% # Class of executed instruction
system.cpu.op_class::SimdFloatDiv                 738      0.00%     87.84% # Class of executed instruction
system.cpu.op_class::SimdFloatMisc                  0      0.00%     87.84% # Class of executed instruction
system.cpu.op_class::SimdFloatMult              11557      0.03%     87.86% # Class of executed instruction
system.cpu.op_class::SimdFloatMultAcc               0      0.00%     87.86% # Class of executed instruction
system.cpu.op_class::SimdFloatSqrt                  0      0.00%     87.86% # Class of executed instruction
system.cpu.op_class::SimdReduceAdd                  0      0.00%     87.86% # Class of executed instruction
system.cpu.op_class::SimdReduceAlu                  0      0.00%     87.86% # Class of executed instruction
system.cpu.op_class::SimdReduceCmp                  0      0.00%     87.86% # Class of executed instruction
system.cpu.op_class::SimdFloatReduceAdd             0      0.00%     87.86% # Class of executed instruction
system.cpu.op_class::SimdFloatReduceCmp             0      0.00%     87.86% # Class of executed instruction
system.cpu.op_class::SimdAes                        0      0.00%     87.86% # Class of executed instruction
system.cpu.op_class::SimdAesMix                     0      0.00%     87.86% # Class of executed instruction
system.cpu.op_class::SimdSha1Hash                   0      0.00%     87.86% # Class of executed instruction
system.cpu.op_class::SimdSha1Hash2                  0      0.00%     87.86% # Class of executed instruction
system.cpu.op_class::SimdSha256Hash                 0      0.00%     87.86% # Class of executed instruction
system.cpu.op_class::SimdSha256Hash2                0      0.00%     87.86% # Class of executed instruction
system.cpu.op_class::SimdShaSigma2                  0      0.00%     87.86% # Class of executed instruction
system.cpu.op_class::SimdShaSigma3                  0      0.00%     87.86% # Class of executed instruction
system.cpu.op_class::SimdPredAlu                    0      0.00%     87.86% # Class of executed instruction
system.cpu.op_class::MemRead                  5134419     11.94%     99.80% # Class of executed instruction
system.cpu.op_class::MemWrite                   62132      0.14%     99.95% # Class of executed instruction
system.cpu.op_class::FloatMemRead               18666      0.04%     99.99% # Class of executed instruction
system.cpu.op_class::FloatMemWrite               4723      0.01%    100.00% # Class of executed instruction
system.cpu.op_class::IprAccess                      0      0.00%    100.00% # Class of executed instruction
system.cpu.op_class::InstPrefetch                   0      0.00%    100.00% # Class of executed instruction
system.cpu.op_class::total                   43015314                       # Class of executed instruction
system.cpu.workload.numSyscalls                    17                       # Number of system calls
system.membus.snoop_filter.hit_multi_requests            0                       # Number of requests hitting in the snoop filter with multiple (>1) holders of the requested data.
system.membus.snoop_filter.hit_multi_snoops            0                       # Number of snoops hitting in the snoop filter with multiple (>1) holders of the requested data.
system.membus.snoop_filter.hit_single_requests        23149                       # Number of requests hitting in the snoop filter with a single holder of the requested data.
system.membus.snoop_filter.hit_single_snoops            0                       # Number of snoops hitting in the snoop filter with a single holder of the requested data.
system.membus.snoop_filter.tot_requests         46426                       # Total number of requests made to the snoop filter.
system.membus.snoop_filter.tot_snoops               0                       # Total number of snoops made to the snoop filter.
system.membus.pwrStateResidencyTicks::UNDEFINED  36037717000                       # Cumulative time (in ticks) in various power states
system.membus.trans_dist::ReadResp              21172                       # Transaction distribution
system.membus.trans_dist::WritebackDirty         7998                       # Transaction distribution
system.membus.trans_dist::WritebackClean          958                       # Transaction distribution
system.membus.trans_dist::CleanEvict            14193                       # Transaction distribution
system.membus.trans_dist::ReadExReq              2105                       # Transaction distribution
system.membus.trans_dist::ReadExResp             2105                       # Transaction distribution
system.membus.trans_dist::ReadCleanReq           1022                       # Transaction distribution
system.membus.trans_dist::ReadSharedReq         20150                       # Transaction distribution
system.membus.pkt_count_system.cpu.icache.mem_side::system.mem_ctrls.port         3002                       # Packet count per connected master and slave (bytes)
system.membus.pkt_count_system.cpu.icache.mem_side::total         3002                       # Packet count per connected master and slave (bytes)
system.membus.pkt_count_system.cpu.dcache.mem_side::system.mem_ctrls.port        66701                       # Packet count per connected master and slave (bytes)
system.membus.pkt_count_system.cpu.dcache.mem_side::total        66701                       # Packet count per connected master and slave (bytes)
system.membus.pkt_count::total                  69703                       # Packet count per connected master and slave (bytes)
system.membus.pkt_size_system.cpu.icache.mem_side::system.mem_ctrls.port       126720                       # Cumulative packet size per connected master and slave (bytes)
system.membus.pkt_size_system.cpu.icache.mem_side::total       126720                       # Cumulative packet size per connected master and slave (bytes)
system.membus.pkt_size_system.cpu.dcache.mem_side::system.mem_ctrls.port      1936192                       # Cumulative packet size per connected master and slave (bytes)
system.membus.pkt_size_system.cpu.dcache.mem_side::total      1936192                       # Cumulative packet size per connected master and slave (bytes)
system.membus.pkt_size::total                 2062912                       # Cumulative packet size per connected master and slave (bytes)
system.membus.snoops                                0                       # Total snoops (count)
system.membus.snoopTraffic                          0                       # Total snoop traffic (bytes)
system.membus.snoop_fanout::samples             23277                       # Request fanout histogram
system.membus.snoop_fanout::mean                    0                       # Request fanout histogram
system.membus.snoop_fanout::stdev                   0                       # Request fanout histogram
system.membus.snoop_fanout::underflows              0      0.00%      0.00% # Request fanout histogram
system.membus.snoop_fanout::0                   23277    100.00%    100.00% # Request fanout histogram
system.membus.snoop_fanout::1                       0      0.00%    100.00% # Request fanout histogram
system.membus.snoop_fanout::2                       0      0.00%    100.00% # Request fanout histogram
system.membus.snoop_fanout::3                       0      0.00%    100.00% # Request fanout histogram
system.membus.snoop_fanout::4                       0      0.00%    100.00% # Request fanout histogram
system.membus.snoop_fanout::overflows               0      0.00%    100.00% # Request fanout histogram
system.membus.snoop_fanout::min_value               0                       # Request fanout histogram
system.membus.snoop_fanout::max_value               0                       # Request fanout histogram
system.membus.snoop_fanout::total               23277                       # Request fanout histogram
system.membus.reqLayer2.occupancy            82370500                       # Layer occupancy (ticks)
system.membus.reqLayer2.utilization               0.2                       # Layer utilization (%)
system.membus.respLayer1.occupancy            5443750                       # Layer occupancy (ticks)
system.membus.respLayer1.utilization              0.0                       # Layer utilization (%)
system.membus.respLayer2.occupancy          116786250                       # Layer occupancy (ticks)
system.membus.respLayer2.utilization              0.3                       # Layer utilization (%)
system.voltage_domain.voltage                       1                       # Voltage in Volts
system.clk_domain.clock                          1000                       # Clock period in ticks
system.cpu_voltage_domain.voltage                   1                       # Voltage in Volts
system.mem_ctrls.pwrStateResidencyTicks::UNDEFINED  36037717000                       # Cumulative time (in ticks) in various power states
system.mem_ctrls.bytes_read::.cpu.inst          65408                       # Number of bytes read from this memory
system.mem_ctrls.bytes_read::.cpu.data        1424320                       # Number of bytes read from this memory
system.mem_ctrls.bytes_read::total            1489728                       # Number of bytes read from this memory
system.mem_ctrls.bytes_inst_read::.cpu.inst        65408                       # Number of instructions bytes read from this memory
system.mem_ctrls.bytes_inst_read::total         65408                       # Number of instructions bytes read from this memory
system.mem_ctrls.bytes_written::.writebacks       511872                       # Number of bytes written to this memory
system.mem_ctrls.bytes_written::total          511872                       # Number of bytes written to this memory
system.mem_ctrls.num_reads::.cpu.inst            1022                       # Number of read requests responded to by this memory
system.mem_ctrls.num_reads::.cpu.data           22255                       # Number of read requests responded to by this memory
system.mem_ctrls.num_reads::total               23277                       # Number of read requests responded to by this memory
system.mem_ctrls.num_writes::.writebacks         7998                       # Number of write requests responded to by this memory
system.mem_ctrls.num_writes::total               7998                       # Number of write requests responded to by this memory
system.mem_ctrls.bw_read::.cpu.inst           1814987                       # Total read bandwidth from this memory (bytes/s)
system.mem_ctrls.bw_read::.cpu.data          39523036                       # Total read bandwidth from this memory (bytes/s)
system.mem_ctrls.bw_read::total              41338024                       # Total read bandwidth from this memory (bytes/s)
system.mem_ctrls.bw_inst_read::.cpu.inst      1814987                       # Instruction read bandwidth from this memory (bytes/s)
system.mem_ctrls.bw_inst_read::total          1814987                       # Instruction read bandwidth from this memory (bytes/s)
system.mem_ctrls.bw_write::.writebacks       14203785                       # Write bandwidth from this memory (bytes/s)
system.mem_ctrls.bw_write::total             14203785                       # Write bandwidth from this memory (bytes/s)
system.mem_ctrls.bw_total::.writebacks       14203785                       # Total bandwidth to/from this memory (bytes/s)
system.mem_ctrls.bw_total::.cpu.inst          1814987                       # Total bandwidth to/from this memory (bytes/s)
system.mem_ctrls.bw_total::.cpu.data         39523036                       # Total bandwidth to/from this memory (bytes/s)
system.mem_ctrls.bw_total::total             55541809                       # Total bandwidth to/from this memory (bytes/s)
system.mem_ctrls.avgPriority_.writebacks::samples      2565.00                       # Average QoS priority value for accepted requests
system.mem_ctrls.avgPriority_.cpu.inst::samples       977.00                       # Average QoS priority value for accepted requests
system.mem_ctrls.avgPriority_.cpu.data::samples     15586.00                       # Average QoS priority value for accepted requests
system.mem_ctrls.priorityMinLatency      0.000000018750                       # per QoS priority minimum request to response latency (s)
system.mem_ctrls.priorityMaxLatency      0.024841074500                       # per QoS priority maximum request to response latency (s)
system.mem_ctrls.numReadWriteTurnArounds          157                       # Number of turnarounds from READ to WRITE
system.mem_ctrls.numWriteReadTurnArounds          157                       # Number of turnarounds from WRITE to READ
system.mem_ctrls.numStayReadState               51171                       # Number of times bus staying in READ state
system.mem_ctrls.numStayWriteState               2388                       # Number of times bus staying in WRITE state
system.mem_ctrls.readReqs                       23277                       # Number of read requests accepted
system.mem_ctrls.writeReqs                       8956                       # Number of write requests accepted
system.mem_ctrls.readBursts                     23277                       # Number of DRAM read bursts, including those serviced by the write queue
system.mem_ctrls.writeBursts                     8956                       # Number of DRAM write bursts, including those merged in the write queue
system.mem_ctrls.servicedByWrQ                   6714                       # Number of DRAM read bursts serviced by the write queue
system.mem_ctrls.mergedWrBursts                  6391                       # Number of DRAM write bursts merged with an existing one
system.mem_ctrls.neitherReadNorWriteReqs            0                       # Number of requests that are neither read nor write
system.mem_ctrls.perBankRdBursts::0               133                       # Per bank write bursts
system.mem_ctrls.perBankRdBursts::1                28                       # Per bank write bursts
system.mem_ctrls.perBankRdBursts::2                 7                       # Per bank write bursts
system.mem_ctrls.perBankRdBursts::3               136                       # Per bank write bursts
system.mem_ctrls.perBankRdBursts::4               240                       # Per bank write bursts
system.mem_ctrls.perBankRdBursts::5               149                       # Per bank write bursts
system.mem_ctrls.perBankRdBursts::6               214                       # Per bank write bursts
system.mem_ctrls.perBankRdBursts::7              5788                       # Per bank write bursts
system.mem_ctrls.perBankRdBursts::8               471                       # Per bank write bursts
system.mem_ctrls.perBankRdBursts::9               920                       # Per bank write bursts
system.mem_ctrls.perBankRdBursts::10             5877                       # Per bank write bursts
system.mem_ctrls.perBankRdBursts::11             2446                       # Per bank write bursts
system.mem_ctrls.perBankRdBursts::12               56                       # Per bank write bursts
system.mem_ctrls.perBankRdBursts::13               56                       # Per bank write bursts
system.mem_ctrls.perBankRdBursts::14                7                       # Per bank write bursts
system.mem_ctrls.perBankRdBursts::15               35                       # Per bank write bursts
system.mem_ctrls.perBankWrBursts::0               102                       # Per bank write bursts
system.mem_ctrls.perBankWrBursts::1                26                       # Per bank write bursts
system.mem_ctrls.perBankWrBursts::2                 0                       # Per bank write bursts
system.mem_ctrls.perBankWrBursts::3               102                       # Per bank write bursts
system.mem_ctrls.perBankWrBursts::4               161                       # Per bank write bursts
system.mem_ctrls.perBankWrBursts::5                87                       # Per bank write bursts
system.mem_ctrls.perBankWrBursts::6               177                       # Per bank write bursts
system.mem_ctrls.perBankWrBursts::7               112                       # Per bank write bursts
system.mem_ctrls.perBankWrBursts::8                14                       # Per bank write bursts
system.mem_ctrls.perBankWrBursts::9               282                       # Per bank write bursts
system.mem_ctrls.perBankWrBursts::10              800                       # Per bank write bursts
system.mem_ctrls.perBankWrBursts::11              526                       # Per bank write bursts
system.mem_ctrls.perBankWrBursts::12               53                       # Per bank write bursts
system.mem_ctrls.perBankWrBursts::13               56                       # Per bank write bursts
system.mem_ctrls.perBankWrBursts::14                7                       # Per bank write bursts
system.mem_ctrls.perBankWrBursts::15               36                       # Per bank write bursts
system.mem_ctrls.avgRdQLen                       1.00                       # Average read queue length when enqueuing
system.mem_ctrls.avgWrQLen                      25.69                       # Average write queue length when enqueuing
system.mem_ctrls.totQLat                    179978000                       # Total ticks spent queuing
system.mem_ctrls.totBusLat                   82815000                       # Total ticks spent in databus transfers
system.mem_ctrls.totMemAccLat               490534250                       # Total ticks spent from burst creation until serviced by the DRAM
system.mem_ctrls.avgQLat                     10866.27                       # Average queueing delay per DRAM burst
system.mem_ctrls.avgBusLat                    5000.00                       # Average bus latency per DRAM burst
system.mem_ctrls.avgMemAccLat                29616.27                       # Average memory access latency per DRAM burst
system.mem_ctrls.numRdRetry                         0                       # Number of times read queue was full causing retry
system.mem_ctrls.numWrRetry                         0                       # Number of times write queue was full causing retry
system.mem_ctrls.readRowHits                     9776                       # Number of row buffer hits during reads
system.mem_ctrls.writeRowHits                    2194                       # Number of row buffer hits during writes
system.mem_ctrls.readRowHitRate                 59.02                       # Row buffer hit rate for reads
system.mem_ctrls.writeRowHitRate                85.54                       # Row buffer hit rate for writes
system.mem_ctrls.readPktSize::0                     0                       # Read request sizes (log2)
system.mem_ctrls.readPktSize::1                     0                       # Read request sizes (log2)
system.mem_ctrls.readPktSize::2                     0                       # Read request sizes (log2)
system.mem_ctrls.readPktSize::3                     0                       # Read request sizes (log2)
system.mem_ctrls.readPktSize::4                     0                       # Read request sizes (log2)
system.mem_ctrls.readPktSize::5                     0                       # Read request sizes (log2)
system.mem_ctrls.readPktSize::6                 23277                       # Read request sizes (log2)
system.mem_ctrls.writePktSize::0                    0                       # Write request sizes (log2)
system.mem_ctrls.writePktSize::1                    0                       # Write request sizes (log2)
system.mem_ctrls.writePktSize::2                    0                       # Write request sizes (log2)
system.mem_ctrls.writePktSize::3                    0                       # Write request sizes (log2)
system.mem_ctrls.writePktSize::4                    0                       # Write request sizes (log2)
system.mem_ctrls.writePktSize::5                    0                       # Write request sizes (log2)
system.mem_ctrls.writePktSize::6                 8956                       # Write request sizes (log2)
system.mem_ctrls.rdQLenPdf::0                   16531                       # What read queue length does an incoming req see
system.mem_ctrls.rdQLenPdf::1                      30                       # What read queue length does an incoming req see
system.mem_ctrls.rdQLenPdf::2                       2                       # What read queue length does an incoming req see
system.mem_ctrls.rdQLenPdf::3                       0                       # What read queue length does an incoming req see
system.mem_ctrls.rdQLenPdf::4                       0                       # What read queue length does an incoming req see
system.mem_ctrls.rdQLenPdf::5                       0                       # What read queue length does an incoming req see
system.mem_ctrls.rdQLenPdf::6                       0                       # What read queue length does an incoming req see
system.mem_ctrls.rdQLenPdf::7                       0                       # What read queue length does an incoming req see
system.mem_ctrls.rdQLenPdf::8                       0                       # What read queue length does an incoming req see
system.mem_ctrls.rdQLenPdf::9                       0                       # What read queue length does an incoming req see
system.mem_ctrls.rdQLenPdf::10                      0                       # What read queue length does an incoming req see
system.mem_ctrls.rdQLenPdf::11                      0                       # What read queue length does an incoming req see
system.mem_ctrls.rdQLenPdf::12                      0                       # What read queue length does an incoming req see
system.mem_ctrls.rdQLenPdf::13                      0                       # What read queue length does an incoming req see
system.mem_ctrls.rdQLenPdf::14                      0                       # What read queue length does an incoming req see
system.mem_ctrls.rdQLenPdf::15                      0                       # What read queue length does an incoming req see
system.mem_ctrls.rdQLenPdf::16                      0                       # What read queue length does an incoming req see
system.mem_ctrls.rdQLenPdf::17                      0                       # What read queue length does an incoming req see
system.mem_ctrls.rdQLenPdf::18                      0                       # What read queue length does an incoming req see
system.mem_ctrls.rdQLenPdf::19                      0                       # What read queue length does an incoming req see
system.mem_ctrls.rdQLenPdf::20                      0                       # What read queue length does an incoming req see
system.mem_ctrls.rdQLenPdf::21                      0                       # What read queue length does an incoming req see
system.mem_ctrls.rdQLenPdf::22                      0                       # What read queue length does an incoming req see
system.mem_ctrls.rdQLenPdf::23                      0                       # What read queue length does an incoming req see
system.mem_ctrls.rdQLenPdf::24                      0                       # What read queue length does an incoming req see
system.mem_ctrls.rdQLenPdf::25                      0                       # What read queue length does an incoming req see
system.mem_ctrls.rdQLenPdf::26                      0                       # What read queue length does an incoming req see
system.mem_ctrls.rdQLenPdf::27                      0                       # What read queue length does an incoming req see
system.mem_ctrls.rdQLenPdf::28                      0                       # What read queue length does an incoming req see
system.mem_ctrls.rdQLenPdf::29                      0                       # What read queue length does an incoming req see
system.mem_ctrls.rdQLenPdf::30                      0                       # What read queue length does an incoming req see
system.mem_ctrls.rdQLenPdf::31                      0                       # What read queue length does an incoming req see
system.mem_ctrls.wrQLenPdf::0                       1                       # What write queue length does an incoming req see
system.mem_ctrls.wrQLenPdf::1                       1                       # What write queue length does an incoming req see
system.mem_ctrls.wrQLenPdf::2                       1                       # What write queue length does an incoming req see
system.mem_ctrls.wrQLenPdf::3                       1                       # What write queue length does an incoming req see
system.mem_ctrls.wrQLenPdf::4                       1                       # What write queue length does an incoming req see
system.mem_ctrls.wrQLenPdf::5                       1                       # What write queue length does an incoming req see
system.mem_ctrls.wrQLenPdf::6                       1                       # What write queue length does an incoming req see
system.mem_ctrls.wrQLenPdf::7                       1                       # What write queue length does an incoming req see
system.mem_ctrls.wrQLenPdf::8                       1                       # What write queue length does an incoming req see
system.mem_ctrls.wrQLenPdf::9                       1                       # What write queue length does an incoming req see
system.mem_ctrls.wrQLenPdf::10                      1                       # What write queue length does an incoming req see
system.mem_ctrls.wrQLenPdf::11                      1                       # What write queue length does an incoming req see
system.mem_ctrls.wrQLenPdf::12                      1                       # What write queue length does an incoming req see
system.mem_ctrls.wrQLenPdf::13                      1                       # What write queue length does an incoming req see
system.mem_ctrls.wrQLenPdf::14                      1                       # What write queue length does an incoming req see
system.mem_ctrls.wrQLenPdf::15                     14                       # What write queue length does an incoming req see
system.mem_ctrls.wrQLenPdf::16                     14                       # What write queue length does an incoming req see
system.mem_ctrls.wrQLenPdf::17                    156                       # What write queue length does an incoming req see
system.mem_ctrls.wrQLenPdf::18                    159                       # What write queue length does an incoming req see
system.mem_ctrls.wrQLenPdf::19                    158                       # What write queue length does an incoming req see
system.mem_ctrls.wrQLenPdf::20                    160                       # What write queue length does an incoming req see
system.mem_ctrls.wrQLenPdf::21                    159                       # What write queue length does an incoming req see
system.mem_ctrls.wrQLenPdf::22                    158                       # What write queue length does an incoming req see
system.mem_ctrls.wrQLenPdf::23                    159                       # What write queue length does an incoming req see
system.mem_ctrls.wrQLenPdf::24                    157                       # What write queue length does an incoming req see
system.mem_ctrls.wrQLenPdf::25                    157                       # What write queue length does an incoming req see
system.mem_ctrls.wrQLenPdf::26                    157                       # What write queue length does an incoming req see
system.mem_ctrls.wrQLenPdf::27                    157                       # What write queue length does an incoming req see
system.mem_ctrls.wrQLenPdf::28                    157                       # What write queue length does an incoming req see
system.mem_ctrls.wrQLenPdf::29                    157                       # What write queue length does an incoming req see
system.mem_ctrls.wrQLenPdf::30                    157                       # What write queue length does an incoming req see
system.mem_ctrls.wrQLenPdf::31                    157                       # What write queue length does an incoming req see
system.mem_ctrls.wrQLenPdf::32                    157                       # What write queue length does an incoming req see
system.mem_ctrls.wrQLenPdf::33                      0                       # What write queue length does an incoming req see
system.mem_ctrls.wrQLenPdf::34                      0                       # What write queue length does an incoming req see
system.mem_ctrls.wrQLenPdf::35                      0                       # What write queue length does an incoming req see
system.mem_ctrls.wrQLenPdf::36                      0                       # What write queue length does an incoming req see
system.mem_ctrls.wrQLenPdf::37                      0                       # What write queue length does an incoming req see
system.mem_ctrls.wrQLenPdf::38                      0                       # What write queue length does an incoming req see
system.mem_ctrls.wrQLenPdf::39                      0                       # What write queue length does an incoming req see
system.mem_ctrls.wrQLenPdf::40                      0                       # What write queue length does an incoming req see
system.mem_ctrls.wrQLenPdf::41                      0                       # What write queue length does an incoming req see
system.mem_ctrls.wrQLenPdf::42                      0                       # What write queue length does an incoming req see
system.mem_ctrls.wrQLenPdf::43                      0                       # What write queue length does an incoming req see
system.mem_ctrls.wrQLenPdf::44                      0                       # What write queue length does an incoming req see
system.mem_ctrls.wrQLenPdf::45                      0                       # What write queue length does an incoming req see
system.mem_ctrls.wrQLenPdf::46                      0                       # What write queue length does an incoming req see
system.mem_ctrls.wrQLenPdf::47                      0                       # What write queue length does an incoming req see
system.mem_ctrls.wrQLenPdf::48                      0                       # What write queue length does an incoming req see
system.mem_ctrls.wrQLenPdf::49                      0                       # What write queue length does an incoming req see
system.mem_ctrls.wrQLenPdf::50                      0                       # What write queue length does an incoming req see
system.mem_ctrls.wrQLenPdf::51                      0                       # What write queue length does an incoming req see
system.mem_ctrls.wrQLenPdf::52                      0                       # What write queue length does an incoming req see
system.mem_ctrls.wrQLenPdf::53                      0                       # What write queue length does an incoming req see
system.mem_ctrls.wrQLenPdf::54                      0                       # What write queue length does an incoming req see
system.mem_ctrls.wrQLenPdf::55                      0                       # What write queue length does an incoming req see
system.mem_ctrls.wrQLenPdf::56                      0                       # What write queue length does an incoming req see
system.mem_ctrls.wrQLenPdf::57                      0                       # What write queue length does an incoming req see
system.mem_ctrls.wrQLenPdf::58                      0                       # What write queue length does an incoming req see
system.mem_ctrls.wrQLenPdf::59                      0                       # What write queue length does an incoming req see
system.mem_ctrls.wrQLenPdf::60                      0                       # What write queue length does an incoming req see
system.mem_ctrls.wrQLenPdf::61                      0                       # What write queue length does an incoming req see
system.mem_ctrls.wrQLenPdf::62                      0                       # What write queue length does an incoming req see
system.mem_ctrls.wrQLenPdf::63                      0                       # What write queue length does an incoming req see
system.mem_ctrls.bytesPerActivate::samples         7126                       # Bytes accessed per row activation
system.mem_ctrls.bytesPerActivate::mean    171.406118                       # Bytes accessed per row activation
system.mem_ctrls.bytesPerActivate::gmean   130.566463                       # Bytes accessed per row activation
system.mem_ctrls.bytesPerActivate::stdev   181.303599                       # Bytes accessed per row activation
system.mem_ctrls.bytesPerActivate::0-127         2228     31.27%     31.27% # Bytes accessed per row activation
system.mem_ctrls.bytesPerActivate::128-255         3671     51.52%     82.78% # Bytes accessed per row activation
system.mem_ctrls.bytesPerActivate::256-383          801     11.24%     94.02% # Bytes accessed per row activation
system.mem_ctrls.bytesPerActivate::384-511           82      1.15%     95.17% # Bytes accessed per row activation
system.mem_ctrls.bytesPerActivate::512-639           51      0.72%     95.89% # Bytes accessed per row activation
system.mem_ctrls.bytesPerActivate::640-767           39      0.55%     96.44% # Bytes accessed per row activation
system.mem_ctrls.bytesPerActivate::768-895           25      0.35%     96.79% # Bytes accessed per row activation
system.mem_ctrls.bytesPerActivate::896-1023           20      0.28%     97.07% # Bytes accessed per row activation
system.mem_ctrls.bytesPerActivate::1024-1151          209      2.93%    100.00% # Bytes accessed per row activation
system.mem_ctrls.bytesPerActivate::total         7126                       # Bytes accessed per row activation
system.mem_ctrls.rdPerTurnAround::samples          157                       # Reads before turning the bus around for writes
system.mem_ctrls.rdPerTurnAround::mean     105.452229                       # Reads before turning the bus around for writes
system.mem_ctrls.rdPerTurnAround::gmean     26.319425                       # Reads before turning the bus around for writes
system.mem_ctrls.rdPerTurnAround::stdev    389.829638                       # Reads before turning the bus around for writes
system.mem_ctrls.rdPerTurnAround::0-127           147     93.63%     93.63% # Reads before turning the bus around for writes
system.mem_ctrls.rdPerTurnAround::128-255            2      1.27%     94.90% # Reads before turning the bus around for writes
system.mem_ctrls.rdPerTurnAround::512-639            1      0.64%     95.54% # Reads before turning the bus around for writes
system.mem_ctrls.rdPerTurnAround::896-1023            1      0.64%     96.18% # Reads before turning the bus around for writes
system.mem_ctrls.rdPerTurnAround::1024-1151            1      0.64%     96.82% # Reads before turning the bus around for writes
system.mem_ctrls.rdPerTurnAround::1408-1535            1      0.64%     97.45% # Reads before turning the bus around for writes
system.mem_ctrls.rdPerTurnAround::1536-1663            1      0.64%     98.09% # Reads before turning the bus around for writes
system.mem_ctrls.rdPerTurnAround::2048-2175            1      0.64%     98.73% # Reads before turning the bus around for writes
system.mem_ctrls.rdPerTurnAround::2304-2431            1      0.64%     99.36% # Reads before turning the bus around for writes
system.mem_ctrls.rdPerTurnAround::2688-2815            1      0.64%    100.00% # Reads before turning the bus around for writes
system.mem_ctrls.rdPerTurnAround::total           157                       # Reads before turning the bus around for writes
system.mem_ctrls.wrPerTurnAround::samples          157                       # Writes before turning the bus around for reads
system.mem_ctrls.wrPerTurnAround::mean      16.184713                       # Writes before turning the bus around for reads
system.mem_ctrls.wrPerTurnAround::gmean     16.174859                       # Writes before turning the bus around for reads
system.mem_ctrls.wrPerTurnAround::stdev      0.586402                       # Writes before turning the bus around for reads
system.mem_ctrls.wrPerTurnAround::16              142     90.45%     90.45% # Writes before turning the bus around for reads
system.mem_ctrls.wrPerTurnAround::17                2      1.27%     91.72% # Writes before turning the bus around for reads
system.mem_ctrls.wrPerTurnAround::18               12      7.64%     99.36% # Writes before turning the bus around for reads
system.mem_ctrls.wrPerTurnAround::19                1      0.64%    100.00% # Writes before turning the bus around for reads
system.mem_ctrls.wrPerTurnAround::total           157                       # Writes before turning the bus around for reads
system.mem_ctrls.bytesReadDRAM                1060032                       # Total number of bytes read from DRAM
system.mem_ctrls.bytesReadWrQ                  429696                       # Total number of bytes read from write queue
system.mem_ctrls.bytesWritten                  162624                       # Total number of bytes written to DRAM
system.mem_ctrls.bytesReadSys                 1489728                       # Total read bytes from the system interface side
system.mem_ctrls.bytesWrittenSys               573184                       # Total written bytes from the system interface side
system.mem_ctrls.avgRdBW                        29.41                       # Average DRAM read bandwidth in MiByte/s
system.mem_ctrls.avgWrBW                         4.51                       # Average achieved write bandwidth in MiByte/s
system.mem_ctrls.avgRdBWSys                     41.34                       # Average system read bandwidth in MiByte/s
system.mem_ctrls.avgWrBWSys                     15.91                       # Average system write bandwidth in MiByte/s
system.mem_ctrls.peakBW                      12800.00                       # Theoretical peak bandwidth in MiByte/s
system.mem_ctrls.busUtil                         0.27                       # Data bus utilization in percentage
system.mem_ctrls.busUtilRead                     0.23                       # Data bus utilization in percentage for reads
system.mem_ctrls.busUtilWrite                    0.04                       # Data bus utilization in percentage for writes
system.mem_ctrls.totGap                   36037702000                       # Total gap between requests
system.mem_ctrls.avgGap                    1118037.48                       # Average gap between requests
system.mem_ctrls.masterReadBytes::.cpu.inst        62528                       # Per-master bytes read from memory
system.mem_ctrls.masterReadBytes::.cpu.data       997504                       # Per-master bytes read from memory
system.mem_ctrls.masterWriteBytes::.writebacks       162624                       # Per-master bytes write to memory
system.mem_ctrls.masterReadRate::.cpu.inst 1735071.064573818818                       # Per-master bytes read from memory rate (Bytes/sec)
system.mem_ctrls.masterReadRate::.cpu.data 27679444.843856230378                       # Per-master bytes read from memory rate (Bytes/sec)
system.mem_ctrls.masterWriteRate::.writebacks 4512605.501619317569                       # Per-master bytes write to memory rate (Bytes/sec)
system.mem_ctrls.masterReadAccesses::.cpu.inst         1022                       # Per-master read serviced memory accesses
system.mem_ctrls.masterReadAccesses::.cpu.data        22255                       # Per-master read serviced memory accesses
system.mem_ctrls.masterWriteAccesses::.writebacks         8956                       # Per-master write serviced memory accesses
system.mem_ctrls.masterReadTotalLat::.cpu.inst     28930250                       # Per-master read total memory access latency
system.mem_ctrls.masterReadTotalLat::.cpu.data    461604000                       # Per-master read total memory access latency
system.mem_ctrls.masterWriteTotalLat::.writebacks 871470686500                       # Per-master write total memory access latency
system.mem_ctrls.masterReadAvgLat::.cpu.inst     28307.49                       # Per-master read average memory access latency
system.mem_ctrls.masterReadAvgLat::.cpu.data     20741.59                       # Per-master read average memory access latency
system.mem_ctrls.masterWriteAvgLat::.writebacks  97305793.49                       # Per-master write average memory access latency
system.mem_ctrls.pageHitRate                    62.58                       # Row buffer hit rate, read and write combined
system.mem_ctrls.rank1.actEnergy             27103440                       # Energy for activate commands per rank (pJ)
system.mem_ctrls.rank1.preEnergy             14394435                       # Energy for precharge commands per rank (pJ)
system.mem_ctrls.rank1.readEnergy            70457520                       # Energy for read commands per rank (pJ)
system.mem_ctrls.rank1.writeEnergy            9260280                       # Energy for write commands per rank (pJ)
system.mem_ctrls.rank1.refreshEnergy     2844553920.000000                       # Energy for refresh commands per rank (pJ)
system.mem_ctrls.rank1.actBackEnergy       8702614080                       # Energy for active background per rank (pJ)
system.mem_ctrls.rank1.preBackEnergy       6509966400                       # Energy for precharge background per rank (pJ)
system.mem_ctrls.rank1.actPowerDownEnergy            0                       # Energy for active power-down per rank (pJ)
system.mem_ctrls.rank1.prePowerDownEnergy            0                       # Energy for precharge power-down per rank (pJ)
system.mem_ctrls.rank1.selfRefreshEnergy            0                       # Energy for self refresh per rank (pJ)
system.mem_ctrls.rank1.totalEnergy        18178350075                       # Total energy per rank (pJ)
system.mem_ctrls.rank1.averagePower        504.425685                       # Core power per rank (mW)
system.mem_ctrls.rank1.totalIdleTime                0                       # Total Idle time Per DRAM Rank
system.mem_ctrls.rank1.memoryStateTime::IDLE  16842834750                       # Time in different power states
system.mem_ctrls.rank1.memoryStateTime::REF   1203280000                       # Time in different power states
system.mem_ctrls.rank1.memoryStateTime::SREF            0                       # Time in different power states
system.mem_ctrls.rank1.memoryStateTime::PRE_PDN            0                       # Time in different power states
system.mem_ctrls.rank1.memoryStateTime::ACT  17991602250                       # Time in different power states
system.mem_ctrls.rank1.memoryStateTime::ACT_PDN            0                       # Time in different power states
system.mem_ctrls.rank0.actEnergy             23833320                       # Energy for activate commands per rank (pJ)
system.mem_ctrls.rank0.preEnergy             12648735                       # Energy for precharge commands per rank (pJ)
system.mem_ctrls.rank0.readEnergy            47802300                       # Energy for read commands per rank (pJ)
system.mem_ctrls.rank0.writeEnergy            4003740                       # Energy for write commands per rank (pJ)
system.mem_ctrls.rank0.refreshEnergy     2844553920.000000                       # Energy for refresh commands per rank (pJ)
system.mem_ctrls.rank0.actBackEnergy       7615280370                       # Energy for active background per rank (pJ)
system.mem_ctrls.rank0.preBackEnergy       7425615840                       # Energy for precharge background per rank (pJ)
system.mem_ctrls.rank0.actPowerDownEnergy            0                       # Energy for active power-down per rank (pJ)
system.mem_ctrls.rank0.prePowerDownEnergy            0                       # Energy for precharge power-down per rank (pJ)
system.mem_ctrls.rank0.selfRefreshEnergy            0                       # Energy for self refresh per rank (pJ)
system.mem_ctrls.rank0.totalEnergy        17973738225                       # Total energy per rank (pJ)
system.mem_ctrls.rank0.averagePower        498.747971                       # Core power per rank (mW)
system.mem_ctrls.rank0.totalIdleTime                0                       # Total Idle time Per DRAM Rank
system.mem_ctrls.rank0.memoryStateTime::IDLE  19233567500                       # Time in different power states
system.mem_ctrls.rank0.memoryStateTime::REF   1203280000                       # Time in different power states
system.mem_ctrls.rank0.memoryStateTime::SREF            0                       # Time in different power states
system.mem_ctrls.rank0.memoryStateTime::PRE_PDN            0                       # Time in different power states
system.mem_ctrls.rank0.memoryStateTime::ACT  15600869500                       # Time in different power states
system.mem_ctrls.rank0.memoryStateTime::ACT_PDN            0                       # Time in different power states
system.cpu_clk_domain.clock                       500                       # Clock period in ticks
system.cpu.numPwrStateTransitions                   1                       # Number of power state transitions
system.cpu.pwrStateResidencyTicks::ON     36037717000                       # Cumulative time (in ticks) in various power states
system.cpu.icache.pwrStateResidencyTicks::UNDEFINED  36037717000                       # Cumulative time (in ticks) in various power states
system.cpu.icache.demand_hits::.cpu.inst     29673957                       # number of demand (read+write) hits
system.cpu.icache.demand_hits::total         29673957                       # number of demand (read+write) hits
system.cpu.icache.overall_hits::.cpu.inst     29673957                       # number of overall hits
system.cpu.icache.overall_hits::total        29673957                       # number of overall hits
system.cpu.icache.demand_misses::.cpu.inst         1022                       # number of demand (read+write) misses
system.cpu.icache.demand_misses::total           1022                       # number of demand (read+write) misses
system.cpu.icache.overall_misses::.cpu.inst         1022                       # number of overall misses
system.cpu.icache.overall_misses::total          1022                       # number of overall misses
system.cpu.icache.demand_miss_latency::.cpu.inst     61770500                       # number of demand (read+write) miss cycles
system.cpu.icache.demand_miss_latency::total     61770500                       # number of demand (read+write) miss cycles
system.cpu.icache.overall_miss_latency::.cpu.inst     61770500                       # number of overall miss cycles
system.cpu.icache.overall_miss_latency::total     61770500                       # number of overall miss cycles
system.cpu.icache.demand_accesses::.cpu.inst     29674979                       # number of demand (read+write) accesses
system.cpu.icache.demand_accesses::total     29674979                       # number of demand (read+write) accesses
system.cpu.icache.overall_accesses::.cpu.inst     29674979                       # number of overall (read+write) accesses
system.cpu.icache.overall_accesses::total     29674979                       # number of overall (read+write) accesses
system.cpu.icache.demand_miss_rate::.cpu.inst     0.000034                       # miss rate for demand accesses
system.cpu.icache.demand_miss_rate::total     0.000034                       # miss rate for demand accesses
system.cpu.icache.overall_miss_rate::.cpu.inst     0.000034                       # miss rate for overall accesses
system.cpu.icache.overall_miss_rate::total     0.000034                       # miss rate for overall accesses
system.cpu.icache.demand_avg_miss_latency::.cpu.inst 60440.802348                       # average overall miss latency
system.cpu.icache.demand_avg_miss_latency::total 60440.802348                       # average overall miss latency
system.cpu.icache.overall_avg_miss_latency::.cpu.inst 60440.802348                       # average overall miss latency
system.cpu.icache.overall_avg_miss_latency::total 60440.802348                       # average overall miss latency
system.cpu.icache.blocked_cycles::no_mshrs            0                       # number of cycles access was blocked
system.cpu.icache.blocked_cycles::no_targets            0                       # number of cycles access was blocked
system.cpu.icache.blocked::no_mshrs                 0                       # number of cycles access was blocked
system.cpu.icache.blocked::no_targets               0                       # number of cycles access was blocked
system.cpu.icache.avg_blocked_cycles::no_mshrs          nan                       # average number of cycles each access was blocked
system.cpu.icache.avg_blocked_cycles::no_targets          nan                       # average number of cycles each access was blocked
system.cpu.icache.writebacks::.writebacks          958                       # number of writebacks
system.cpu.icache.writebacks::total               958                       # number of writebacks
system.cpu.icache.demand_mshr_misses::.cpu.inst         1022                       # number of demand (read+write) MSHR misses
system.cpu.icache.demand_mshr_misses::total         1022                       # number of demand (read+write) MSHR misses
system.cpu.icache.overall_mshr_misses::.cpu.inst         1022                       # number of overall MSHR misses
system.cpu.icache.overall_mshr_misses::total         1022                       # number of overall MSHR misses
system.cpu.icache.demand_mshr_miss_latency::.cpu.inst     60748500                       # number of demand (read+write) MSHR miss cycles
system.cpu.icache.demand_mshr_miss_latency::total     60748500                       # number of demand (read+write) MSHR miss cycles
system.cpu.icache.overall_mshr_miss_latency::.cpu.inst     60748500                       # number of overall MSHR miss cycles
system.cpu.icache.overall_mshr_miss_latency::total     60748500                       # number of overall MSHR miss cycles
system.cpu.icache.demand_mshr_miss_rate::.cpu.inst     0.000034                       # mshr miss rate for demand accesses
system.cpu.icache.demand_mshr_miss_rate::total     0.000034                       # mshr miss rate for demand accesses
system.cpu.icache.overall_mshr_miss_rate::.cpu.inst     0.000034                       # mshr miss rate for overall accesses
system.cpu.icache.overall_mshr_miss_rate::total     0.000034                       # mshr miss rate for overall accesses
system.cpu.icache.demand_avg_mshr_miss_latency::.cpu.inst 59440.802348                       # average overall mshr miss latency
system.cpu.icache.demand_avg_mshr_miss_latency::total 59440.802348                       # average overall mshr miss latency
system.cpu.icache.overall_avg_mshr_miss_latency::.cpu.inst 59440.802348                       # average overall mshr miss latency
system.cpu.icache.overall_avg_mshr_miss_latency::total 59440.802348                       # average overall mshr miss latency
system.cpu.icache.replacements                    958                       # number of replacements
system.cpu.icache.ReadReq_hits::.cpu.inst     29673957                       # number of ReadReq hits
system.cpu.icache.ReadReq_hits::total        29673957                       # number of ReadReq hits
system.cpu.icache.ReadReq_misses::.cpu.inst         1022                       # number of ReadReq misses
system.cpu.icache.ReadReq_misses::total          1022                       # number of ReadReq misses
system.cpu.icache.ReadReq_miss_latency::.cpu.inst     61770500                       # number of ReadReq miss cycles
system.cpu.icache.ReadReq_miss_latency::total     61770500                       # number of ReadReq miss cycles
system.cpu.icache.ReadReq_accesses::.cpu.inst     29674979                       # number of ReadReq accesses(hits+misses)
system.cpu.icache.ReadReq_accesses::total     29674979                       # number of ReadReq accesses(hits+misses)
system.cpu.icache.ReadReq_miss_rate::.cpu.inst     0.000034                       # miss rate for ReadReq accesses
system.cpu.icache.ReadReq_miss_rate::total     0.000034                       # miss rate for ReadReq accesses
system.cpu.icache.ReadReq_avg_miss_latency::.cpu.inst 60440.802348                       # average ReadReq miss latency
system.cpu.icache.ReadReq_avg_miss_latency::total 60440.802348                       # average ReadReq miss latency
system.cpu.icache.ReadReq_mshr_misses::.cpu.inst         1022                       # number of ReadReq MSHR misses
system.cpu.icache.ReadReq_mshr_misses::total         1022                       # number of ReadReq MSHR misses
system.cpu.icache.ReadReq_mshr_miss_latency::.cpu.inst     60748500                       # number of ReadReq MSHR miss cycles
system.cpu.icache.ReadReq_mshr_miss_latency::total     60748500                       # number of ReadReq MSHR miss cycles
system.cpu.icache.ReadReq_mshr_miss_rate::.cpu.inst     0.000034                       # mshr miss rate for ReadReq accesses
system.cpu.icache.ReadReq_mshr_miss_rate::total     0.000034                       # mshr miss rate for ReadReq accesses
system.cpu.icache.ReadReq_avg_mshr_miss_latency::.cpu.inst 59440.802348                       # average ReadReq mshr miss latency
system.cpu.icache.ReadReq_avg_mshr_miss_latency::total 59440.802348                       # average ReadReq mshr miss latency
system.cpu.icache.tags.pwrStateResidencyTicks::UNDEFINED  36037717000                       # Cumulative time (in ticks) in various power states
system.cpu.icache.tags.tagsinuse            63.990502                       # Cycle average of tags in use
system.cpu.icache.tags.total_refs            29674979                       # Total number of references to valid blocks.
system.cpu.icache.tags.sampled_refs              1022                       # Sample count of references to valid blocks.
system.cpu.icache.tags.avg_refs          29036.182975                       # Average number of references to valid blocks.
system.cpu.icache.tags.warmup_cycle             77000                       # Cycle when the warmup percentage was hit.
system.cpu.icache.tags.occ_blocks::.cpu.inst    63.990502                       # Average occupied blocks per requestor
system.cpu.icache.tags.occ_percent::.cpu.inst     0.999852                       # Average percentage of cache occupancy
system.cpu.icache.tags.occ_percent::total     0.999852                       # Average percentage of cache occupancy
system.cpu.icache.tags.occ_task_id_blocks::1024           64                       # Occupied blocks per task id
system.cpu.icache.tags.age_task_id_blocks_1024::0           53                       # Occupied blocks per task id
system.cpu.icache.tags.age_task_id_blocks_1024::1           11                       # Occupied blocks per task id
system.cpu.icache.tags.occ_task_id_percent::1024            1                       # Percentage of cache occupancy per task id
system.cpu.icache.tags.tag_accesses          59350980                       # Number of tag accesses
system.cpu.icache.tags.data_accesses         59350980                       # Number of data accesses
system.cpu.dtb.walker.pwrStateResidencyTicks::UNDEFINED  36037717000                       # Cumulative time (in ticks) in various power states
system.cpu.interrupts.clk_domain.clock           8000                       # Clock period in ticks
system.cpu.itb_walker_cache.pwrStateResidencyTicks::UNDEFINED  36037717000                       # Cumulative time (in ticks) in various power states
system.cpu.itb_walker_cache.blocked_cycles::no_mshrs            0                       # number of cycles access was blocked
system.cpu.itb_walker_cache.blocked_cycles::no_targets            0                       # number of cycles access was blocked
system.cpu.itb_walker_cache.blocked::no_mshrs            0                       # number of cycles access was blocked
system.cpu.itb_walker_cache.blocked::no_targets            0                       # number of cycles access was blocked
system.cpu.itb_walker_cache.avg_blocked_cycles::no_mshrs          nan                       # average number of cycles each access was blocked
system.cpu.itb_walker_cache.avg_blocked_cycles::no_targets          nan                       # average number of cycles each access was blocked
system.cpu.itb_walker_cache.replacements            0                       # number of replacements
system.cpu.itb_walker_cache.tags.pwrStateResidencyTicks::UNDEFINED  36037717000                       # Cumulative time (in ticks) in various power states
system.cpu.itb_walker_cache.tags.tagsinuse            0                       # Cycle average of tags in use
system.cpu.itb_walker_cache.tags.total_refs            0                       # Total number of references to valid blocks.
system.cpu.itb_walker_cache.tags.sampled_refs            0                       # Sample count of references to valid blocks.
system.cpu.itb_walker_cache.tags.avg_refs          nan                       # Average number of references to valid blocks.
system.cpu.itb_walker_cache.tags.warmup_cycle            0                       # Cycle when the warmup percentage was hit.
system.cpu.itb_walker_cache.tags.tag_accesses            0                       # Number of tag accesses
system.cpu.itb_walker_cache.tags.data_accesses            0                       # Number of data accesses
system.cpu.itb.walker.pwrStateResidencyTicks::UNDEFINED  36037717000                       # Cumulative time (in ticks) in various power states
system.cpu.dtb_walker_cache.pwrStateResidencyTicks::UNDEFINED  36037717000                       # Cumulative time (in ticks) in various power states
system.cpu.dtb_walker_cache.blocked_cycles::no_mshrs            0                       # number of cycles access was blocked
system.cpu.dtb_walker_cache.blocked_cycles::no_targets            0                       # number of cycles access was blocked
system.cpu.dtb_walker_cache.blocked::no_mshrs            0                       # number of cycles access was blocked
system.cpu.dtb_walker_cache.blocked::no_targets            0                       # number of cycles access was blocked
system.cpu.dtb_walker_cache.avg_blocked_cycles::no_mshrs          nan                       # average number of cycles each access was blocked
system.cpu.dtb_walker_cache.avg_blocked_cycles::no_targets          nan                       # average number of cycles each access was blocked
system.cpu.dtb_walker_cache.replacements            0                       # number of replacements
system.cpu.dtb_walker_cache.tags.pwrStateResidencyTicks::UNDEFINED  36037717000                       # Cumulative time (in ticks) in various power states
system.cpu.dtb_walker_cache.tags.tagsinuse            0                       # Cycle average of tags in use
system.cpu.dtb_walker_cache.tags.total_refs            0                       # Total number of references to valid blocks.
system.cpu.dtb_walker_cache.tags.sampled_refs            0                       # Sample count of references to valid blocks.
system.cpu.dtb_walker_cache.tags.avg_refs          nan                       # Average number of references to valid blocks.
system.cpu.dtb_walker_cache.tags.warmup_cycle            0                       # Cycle when the warmup percentage was hit.
system.cpu.dtb_walker_cache.tags.tag_accesses            0                       # Number of tag accesses
system.cpu.dtb_walker_cache.tags.data_accesses            0                       # Number of data accesses
system.cpu.dcache.pwrStateResidencyTicks::UNDEFINED  36037717000                       # Cumulative time (in ticks) in various power states
system.cpu.dcache.demand_hits::.cpu.data      5197015                       # number of demand (read+write) hits
system.cpu.dcache.demand_hits::total          5197015                       # number of demand (read+write) hits
system.cpu.dcache.overall_hits::.cpu.data      5197237                       # number of overall hits
system.cpu.dcache.overall_hits::total         5197237                       # number of overall hits
system.cpu.dcache.demand_misses::.cpu.data        22029                       # number of demand (read+write) misses
system.cpu.dcache.demand_misses::total          22029                       # number of demand (read+write) misses
system.cpu.dcache.overall_misses::.cpu.data        22255                       # number of overall misses
system.cpu.dcache.overall_misses::total         22255                       # number of overall misses
system.cpu.dcache.demand_miss_latency::.cpu.data   1100060000                       # number of demand (read+write) miss cycles
system.cpu.dcache.demand_miss_latency::total   1100060000                       # number of demand (read+write) miss cycles
system.cpu.dcache.overall_miss_latency::.cpu.data   1100060000                       # number of overall miss cycles
system.cpu.dcache.overall_miss_latency::total   1100060000                       # number of overall miss cycles
system.cpu.dcache.demand_accesses::.cpu.data      5219044                       # number of demand (read+write) accesses
system.cpu.dcache.demand_accesses::total      5219044                       # number of demand (read+write) accesses
system.cpu.dcache.overall_accesses::.cpu.data      5219492                       # number of overall (read+write) accesses
system.cpu.dcache.overall_accesses::total      5219492                       # number of overall (read+write) accesses
system.cpu.dcache.demand_miss_rate::.cpu.data     0.004221                       # miss rate for demand accesses
system.cpu.dcache.demand_miss_rate::total     0.004221                       # miss rate for demand accesses
system.cpu.dcache.overall_miss_rate::.cpu.data     0.004264                       # miss rate for overall accesses
system.cpu.dcache.overall_miss_rate::total     0.004264                       # miss rate for overall accesses
system.cpu.dcache.demand_avg_miss_latency::.cpu.data 49936.901357                       # average overall miss latency
system.cpu.dcache.demand_avg_miss_latency::total 49936.901357                       # average overall miss latency
system.cpu.dcache.overall_avg_miss_latency::.cpu.data 49429.791058                       # average overall miss latency
system.cpu.dcache.overall_avg_miss_latency::total 49429.791058                       # average overall miss latency
system.cpu.dcache.blocked_cycles::no_mshrs            0                       # number of cycles access was blocked
system.cpu.dcache.blocked_cycles::no_targets            0                       # number of cycles access was blocked
system.cpu.dcache.blocked::no_mshrs                 0                       # number of cycles access was blocked
system.cpu.dcache.blocked::no_targets               0                       # number of cycles access was blocked
system.cpu.dcache.avg_blocked_cycles::no_mshrs          nan                       # average number of cycles each access was blocked
system.cpu.dcache.avg_blocked_cycles::no_targets          nan                       # average number of cycles each access was blocked
system.cpu.dcache.writebacks::.writebacks         7998                       # number of writebacks
system.cpu.dcache.writebacks::total              7998                       # number of writebacks
system.cpu.dcache.demand_mshr_misses::.cpu.data        22029                       # number of demand (read+write) MSHR misses
system.cpu.dcache.demand_mshr_misses::total        22029                       # number of demand (read+write) MSHR misses
system.cpu.dcache.overall_mshr_misses::.cpu.data        22255                       # number of overall MSHR misses
system.cpu.dcache.overall_mshr_misses::total        22255                       # number of overall MSHR misses
system.cpu.dcache.demand_mshr_miss_latency::.cpu.data   1078031000                       # number of demand (read+write) MSHR miss cycles
system.cpu.dcache.demand_mshr_miss_latency::total   1078031000                       # number of demand (read+write) MSHR miss cycles
system.cpu.dcache.overall_mshr_miss_latency::.cpu.data   1090991000                       # number of overall MSHR miss cycles
system.cpu.dcache.overall_mshr_miss_latency::total   1090991000                       # number of overall MSHR miss cycles
system.cpu.dcache.demand_mshr_miss_rate::.cpu.data     0.004221                       # mshr miss rate for demand accesses
system.cpu.dcache.demand_mshr_miss_rate::total     0.004221                       # mshr miss rate for demand accesses
system.cpu.dcache.overall_mshr_miss_rate::.cpu.data     0.004264                       # mshr miss rate for overall accesses
system.cpu.dcache.overall_mshr_miss_rate::total     0.004264                       # mshr miss rate for overall accesses
system.cpu.dcache.demand_avg_mshr_miss_latency::.cpu.data 48936.901357                       # average overall mshr miss latency
system.cpu.dcache.demand_avg_mshr_miss_latency::total 48936.901357                       # average overall mshr miss latency
system.cpu.dcache.overall_avg_mshr_miss_latency::.cpu.data 49022.287126                       # average overall mshr miss latency
system.cpu.dcache.overall_avg_mshr_miss_latency::total 49022.287126                       # average overall mshr miss latency
system.cpu.dcache.replacements                  22191                       # number of replacements
system.cpu.dcache.ReadReq_hits::.cpu.data      5132940                       # number of ReadReq hits
system.cpu.dcache.ReadReq_hits::total         5132940                       # number of ReadReq hits
system.cpu.dcache.ReadReq_misses::.cpu.data        19924                       # number of ReadReq misses
system.cpu.dcache.ReadReq_misses::total         19924                       # number of ReadReq misses
system.cpu.dcache.ReadReq_miss_latency::.cpu.data   1022252500                       # number of ReadReq miss cycles
system.cpu.dcache.ReadReq_miss_latency::total   1022252500                       # number of ReadReq miss cycles
system.cpu.dcache.ReadReq_accesses::.cpu.data      5152864                       # number of ReadReq accesses(hits+misses)
system.cpu.dcache.ReadReq_accesses::total      5152864                       # number of ReadReq accesses(hits+misses)
system.cpu.dcache.ReadReq_miss_rate::.cpu.data     0.003867                       # miss rate for ReadReq accesses
system.cpu.dcache.ReadReq_miss_rate::total     0.003867                       # miss rate for ReadReq accesses
system.cpu.dcache.ReadReq_avg_miss_latency::.cpu.data 51307.593857                       # average ReadReq miss latency
system.cpu.dcache.ReadReq_avg_miss_latency::total 51307.593857                       # average ReadReq miss latency
system.cpu.dcache.ReadReq_mshr_misses::.cpu.data        19924                       # number of ReadReq MSHR misses
system.cpu.dcache.ReadReq_mshr_misses::total        19924                       # number of ReadReq MSHR misses
system.cpu.dcache.ReadReq_mshr_miss_latency::.cpu.data   1002328500                       # number of ReadReq MSHR miss cycles
system.cpu.dcache.ReadReq_mshr_miss_latency::total   1002328500                       # number of ReadReq MSHR miss cycles
system.cpu.dcache.ReadReq_mshr_miss_rate::.cpu.data     0.003867                       # mshr miss rate for ReadReq accesses
system.cpu.dcache.ReadReq_mshr_miss_rate::total     0.003867                       # mshr miss rate for ReadReq accesses
system.cpu.dcache.ReadReq_avg_mshr_miss_latency::.cpu.data 50307.593857                       # average ReadReq mshr miss latency
system.cpu.dcache.ReadReq_avg_mshr_miss_latency::total 50307.593857                       # average ReadReq mshr miss latency
system.cpu.dcache.WriteReq_hits::.cpu.data        64075                       # number of WriteReq hits
system.cpu.dcache.WriteReq_hits::total          64075                       # number of WriteReq hits
system.cpu.dcache.WriteReq_misses::.cpu.data         2105                       # number of WriteReq misses
system.cpu.dcache.WriteReq_misses::total         2105                       # number of WriteReq misses
system.cpu.dcache.WriteReq_miss_latency::.cpu.data     77807500                       # number of WriteReq miss cycles
system.cpu.dcache.WriteReq_miss_latency::total     77807500                       # number of WriteReq miss cycles
system.cpu.dcache.WriteReq_accesses::.cpu.data        66180                       # number of WriteReq accesses(hits+misses)
system.cpu.dcache.WriteReq_accesses::total        66180                       # number of WriteReq accesses(hits+misses)
system.cpu.dcache.WriteReq_miss_rate::.cpu.data     0.031807                       # miss rate for WriteReq accesses
system.cpu.dcache.WriteReq_miss_rate::total     0.031807                       # miss rate for WriteReq accesses
system.cpu.dcache.WriteReq_avg_miss_latency::.cpu.data 36963.182898                       # average WriteReq miss latency
system.cpu.dcache.WriteReq_avg_miss_latency::total 36963.182898                       # average WriteReq miss latency
system.cpu.dcache.WriteReq_mshr_misses::.cpu.data         2105                       # number of WriteReq MSHR misses
system.cpu.dcache.WriteReq_mshr_misses::total         2105                       # number of WriteReq MSHR misses
system.cpu.dcache.WriteReq_mshr_miss_latency::.cpu.data     75702500                       # number of WriteReq MSHR miss cycles
system.cpu.dcache.WriteReq_mshr_miss_latency::total     75702500                       # number of WriteReq MSHR miss cycles
system.cpu.dcache.WriteReq_mshr_miss_rate::.cpu.data     0.031807                       # mshr miss rate for WriteReq accesses
system.cpu.dcache.WriteReq_mshr_miss_rate::total     0.031807                       # mshr miss rate for WriteReq accesses
system.cpu.dcache.WriteReq_avg_mshr_miss_latency::.cpu.data 35963.182898                       # average WriteReq mshr miss latency
system.cpu.dcache.WriteReq_avg_mshr_miss_latency::total 35963.182898                       # average WriteReq mshr miss latency
system.cpu.dcache.SoftPFReq_hits::.cpu.data          222                       # number of SoftPFReq hits
system.cpu.dcache.SoftPFReq_hits::total           222                       # number of SoftPFReq hits
system.cpu.dcache.SoftPFReq_misses::.cpu.data          226                       # number of SoftPFReq misses
system.cpu.dcache.SoftPFReq_misses::total          226                       # number of SoftPFReq misses
system.cpu.dcache.SoftPFReq_accesses::.cpu.data          448                       # number of SoftPFReq accesses(hits+misses)
system.cpu.dcache.SoftPFReq_accesses::total          448                       # number of SoftPFReq accesses(hits+misses)
system.cpu.dcache.SoftPFReq_miss_rate::.cpu.data     0.504464                       # miss rate for SoftPFReq accesses
system.cpu.dcache.SoftPFReq_miss_rate::total     0.504464                       # miss rate for SoftPFReq accesses
system.cpu.dcache.SoftPFReq_mshr_misses::.cpu.data          226                       # number of SoftPFReq MSHR misses
system.cpu.dcache.SoftPFReq_mshr_misses::total          226                       # number of SoftPFReq MSHR misses
system.cpu.dcache.SoftPFReq_mshr_miss_latency::.cpu.data     12960000                       # number of SoftPFReq MSHR miss cycles
system.cpu.dcache.SoftPFReq_mshr_miss_latency::total     12960000                       # number of SoftPFReq MSHR miss cycles
system.cpu.dcache.SoftPFReq_mshr_miss_rate::.cpu.data     0.504464                       # mshr miss rate for SoftPFReq accesses
system.cpu.dcache.SoftPFReq_mshr_miss_rate::total     0.504464                       # mshr miss rate for SoftPFReq accesses
system.cpu.dcache.SoftPFReq_avg_mshr_miss_latency::.cpu.data 57345.132743                       # average SoftPFReq mshr miss latency
system.cpu.dcache.SoftPFReq_avg_mshr_miss_latency::total 57345.132743                       # average SoftPFReq mshr miss latency
system.cpu.dcache.tags.pwrStateResidencyTicks::UNDEFINED  36037717000                       # Cumulative time (in ticks) in various power states
system.cpu.dcache.tags.tagsinuse            63.987382                       # Cycle average of tags in use
system.cpu.dcache.tags.total_refs             5219492                       # Total number of references to valid blocks.
system.cpu.dcache.tags.sampled_refs             22255                       # Sample count of references to valid blocks.
system.cpu.dcache.tags.avg_refs            234.531206                       # Average number of references to valid blocks.
system.cpu.dcache.tags.warmup_cycle            148000                       # Cycle when the warmup percentage was hit.
system.cpu.dcache.tags.occ_blocks::.cpu.data    63.987382                       # Average occupied blocks per requestor
system.cpu.dcache.tags.occ_percent::.cpu.data     0.999803                       # Average percentage of cache occupancy
system.cpu.dcache.tags.occ_percent::total     0.999803                       # Average percentage of cache occupancy
system.cpu.dcache.tags.occ_task_id_blocks::1024           64                       # Occupied blocks per task id
system.cpu.dcache.tags.age_task_id_blocks_1024::0           33                       # Occupied blocks per task id
system.cpu.dcache.tags.age_task_id_blocks_1024::1           31                       # Occupied blocks per task id
system.cpu.dcache.tags.occ_task_id_percent::1024            1                       # Percentage of cache occupancy per task id
system.cpu.dcache.tags.tag_accesses          10461239                       # Number of tag accesses
system.cpu.dcache.tags.data_accesses         10461239                       # Number of data accesses

---------- End Simulation Statistics   ----------
