
---------- Begin Simulation Statistics ----------
final_tick                               103126982000                       # Number of ticks from beginning of simulation (restored from checkpoints and never reset)
host_inst_rate                                 907977                       # Simulator instruction rate (inst/s)
host_mem_usage                                 698380                       # Number of bytes of host memory used
host_op_rate                                   911285                       # Simulator op (including micro ops) rate (op/s)
host_seconds                                    67.68                       # Real time elapsed on the host
host_tick_rate                             1523637253                       # Simulator tick rate (ticks/s)
sim_freq                                 1000000000000                       # Frequency of simulated ticks
sim_insts                                    61456032                       # Number of instructions simulated
sim_ops                                      61680039                       # Number of ops (including micro ops) simulated
sim_seconds                                  0.103127                       # Number of seconds simulated
sim_ticks                                103126982000                       # Number of ticks simulated
system.cpu.Branches                           2313777                       # Number of branches fetched
system.cpu.committedInsts                    61456032                       # Number of instructions committed
system.cpu.committedOps                      61680039                       # Number of ops (including micro ops) committed
system.cpu.dtb.accesses                             0                       # DTB accesses
system.cpu.dtb.align_faults                         0                       # Number of TLB faults due to alignment restrictions
system.cpu.dtb.domain_faults                        0                       # Number of TLB faults due to domain restrictions
system.cpu.dtb.flush_entries                        0                       # Number of entries that have been flushed from TLB
system.cpu.dtb.flush_tlb                            0                       # Number of times complete TLB was flushed
system.cpu.dtb.flush_tlb_asid                       0                       # Number of times TLB was flushed by ASID
system.cpu.dtb.flush_tlb_mva                        0                       # Number of times TLB was flushed by MVA
system.cpu.dtb.flush_tlb_mva_asid                   0                       # Number of times TLB was flushed by MVA & ASID
system.cpu.dtb.hits                                 0                       # DTB hits
system.cpu.dtb.inst_accesses                        0                       # ITB inst accesses
system.cpu.dtb.inst_hits                            0                       # ITB inst hits
system.cpu.dtb.inst_misses                          0                       # ITB inst misses
system.cpu.dtb.misses                               0                       # DTB misses
system.cpu.dtb.perms_faults                         0                       # Number of TLB faults due to permissions restrictions
system.cpu.dtb.prefetch_faults                      0                       # Number of TLB faults due to prefetch
system.cpu.dtb.read_accesses                        0                       # DTB read accesses
system.cpu.dtb.read_hits                            0                       # DTB read hits
system.cpu.dtb.read_misses                          0                       # DTB read misses
system.cpu.dtb.stage2_mmu.stage2_tlb.accesses            0                       # DTB accesses
system.cpu.dtb.stage2_mmu.stage2_tlb.align_faults            0                       # Number of TLB faults due to alignment restrictions
system.cpu.dtb.stage2_mmu.stage2_tlb.domain_faults            0                       # Number of TLB faults due to domain restrictions
system.cpu.dtb.stage2_mmu.stage2_tlb.flush_entries            0                       # Number of entries that have been flushed from TLB
system.cpu.dtb.stage2_mmu.stage2_tlb.flush_tlb            0                       # Number of times complete TLB was flushed
system.cpu.dtb.stage2_mmu.stage2_tlb.flush_tlb_asid            0                       # Number of times TLB was flushed by ASID
system.cpu.dtb.stage2_mmu.stage2_tlb.flush_tlb_mva            0                       # Number of times TLB was flushed by MVA
system.cpu.dtb.stage2_mmu.stage2_tlb.flush_tlb_mva_asid            0                       # Number of times TLB was flushed by MVA & ASID
system.cpu.dtb.stage2_mmu.stage2_tlb.hits            0                       # DTB hits
system.cpu.dtb.stage2_mmu.stage2_tlb.inst_accesses            0                       # ITB inst accesses
system.cpu.dtb.stage2_mmu.stage2_tlb.inst_hits            0                       # ITB inst hits
system.cpu.dtb.stage2_mmu.stage2_tlb.inst_misses            0                       # ITB inst misses
system.cpu.dtb.stage2_mmu.stage2_tlb.misses            0                       # DTB misses
system.cpu.dtb.stage2_mmu.stage2_tlb.perms_faults            0                       # Number of TLB faults due to permissions restrictions
system.cpu.dtb.stage2_mmu.stage2_tlb.prefetch_faults            0                       # Number of TLB faults due to prefetch
system.cpu.dtb.stage2_mmu.stage2_tlb.read_accesses            0                       # DTB read accesses
system.cpu.dtb.stage2_mmu.stage2_tlb.read_hits            0                       # DTB read hits
system.cpu.dtb.stage2_mmu.stage2_tlb.read_misses            0                       # DTB read misses
system.cpu.dtb.stage2_mmu.stage2_tlb.walker.walkRequestOrigin_Requested::Data            0                       # Table walker requests started/completed, data/inst
system.cpu.dtb.stage2_mmu.stage2_tlb.walker.walkRequestOrigin_Requested::Inst            0                       # Table walker requests started/completed, data/inst
system.cpu.dtb.stage2_mmu.stage2_tlb.walker.walkRequestOrigin_Requested::total            0                       # Table walker requests started/completed, data/inst
system.cpu.dtb.stage2_mmu.stage2_tlb.walker.walkRequestOrigin_Completed::Data            0                       # Table walker requests started/completed, data/inst
system.cpu.dtb.stage2_mmu.stage2_tlb.walker.walkRequestOrigin_Completed::Inst            0                       # Table walker requests started/completed, data/inst
system.cpu.dtb.stage2_mmu.stage2_tlb.walker.walkRequestOrigin_Completed::total            0                       # Table walker requests started/completed, data/inst
system.cpu.dtb.stage2_mmu.stage2_tlb.walker.walkRequestOrigin::total            0                       # Table walker requests started/completed, data/inst
system.cpu.dtb.stage2_mmu.stage2_tlb.walker.walks            0                       # Table walker walks requested
system.cpu.dtb.stage2_mmu.stage2_tlb.write_accesses            0                       # DTB write accesses
system.cpu.dtb.stage2_mmu.stage2_tlb.write_hits            0                       # DTB write hits
system.cpu.dtb.stage2_mmu.stage2_tlb.write_misses            0                       # DTB write misses
system.cpu.dtb.walker.walkRequestOrigin_Requested::Data            0                       # Table walker requests started/completed, data/inst
system.cpu.dtb.walker.walkRequestOrigin_Requested::Inst            0                       # Table walker requests started/completed, data/inst
system.cpu.dtb.walker.walkRequestOrigin_Requested::total            0                       # Table walker requests started/completed, data/inst
system.cpu.dtb.walker.walkRequestOrigin_Completed::Data            0                       # Table walker requests started/completed, data/inst
system.cpu.dtb.walker.walkRequestOrigin_Completed::Inst            0                       # Table walker requests started/completed, data/inst
system.cpu.dtb.walker.walkRequestOrigin_Completed::total            0                       # Table walker requests started/completed, data/inst
system.cpu.dtb.walker.walkRequestOrigin::total            0                       # Table walker requests started/completed, data/inst
system.cpu.dtb.walker.walks                         0                       # Table walker walks requested
system.cpu.dtb.write_accesses                       0                       # DTB write accesses
system.cpu.dtb.write_hits                           0                       # DTB write hits
system.cpu.dtb.write_misses                         0                       # DTB write misses
system.cpu.idle_fraction                     0.000000                       # Percentage of idle cycles
system.cpu.itb.accesses                             0                       # DTB accesses
system.cpu.itb.align_faults                         0                       # Number of TLB faults due to alignment restrictions
system.cpu.itb.domain_faults                        0                       # Number of TLB faults due to domain restrictions
system.cpu.itb.flush_entries                        0                       # Number of entries that have been flushed from TLB
system.cpu.itb.flush_tlb                            0                       # Number of times complete TLB was flushed
system.cpu.itb.flush_tlb_asid                       0                       # Number of times TLB was flushed by ASID
system.cpu.itb.flush_tlb_mva                        0                       # Number of times TLB was flushed by MVA
system.cpu.itb.flush_tlb_mva_asid                   0                       # Number of times TLB was flushed by MVA & ASID
system.cpu.itb.hits                                 0                       # DTB hits
system.cpu.itb.inst_accesses                        0                       # ITB inst accesses
system.cpu.itb.inst_hits                            0                       # ITB inst hits
system.cpu.itb.inst_misses                          0                       # ITB inst misses
system.cpu.itb.misses                               0                       # DTB misses
system.cpu.itb.perms_faults                         0                       # Number of TLB faults due to permissions restrictions
system.cpu.itb.prefetch_faults                      0                       # Number of TLB faults due to prefetch
system.cpu.itb.read_accesses                        0                       # DTB read accesses
system.cpu.itb.read_hits                            0                       # DTB read hits
system.cpu.itb.read_misses                          0                       # DTB read misses
system.cpu.itb.stage2_mmu.stage2_tlb.accesses            0                       # DTB accesses
system.cpu.itb.stage2_mmu.stage2_tlb.align_faults            0                       # Number of TLB faults due to alignment restrictions
system.cpu.itb.stage2_mmu.stage2_tlb.domain_faults            0                       # Number of TLB faults due to domain restrictions
system.cpu.itb.stage2_mmu.stage2_tlb.flush_entries            0                       # Number of entries that have been flushed from TLB
system.cpu.itb.stage2_mmu.stage2_tlb.flush_tlb            0                       # Number of times complete TLB was flushed
system.cpu.itb.stage2_mmu.stage2_tlb.flush_tlb_asid            0                       # Number of times TLB was flushed by ASID
system.cpu.itb.stage2_mmu.stage2_tlb.flush_tlb_mva            0                       # Number of times TLB was flushed by MVA
system.cpu.itb.stage2_mmu.stage2_tlb.flush_tlb_mva_asid            0                       # Number of times TLB was flushed by MVA & ASID
system.cpu.itb.stage2_mmu.stage2_tlb.hits            0                       # DTB hits
system.cpu.itb.stage2_mmu.stage2_tlb.inst_accesses            0                       # ITB inst accesses
system.cpu.itb.stage2_mmu.stage2_tlb.inst_hits            0                       # ITB inst hits
system.cpu.itb.stage2_mmu.stage2_tlb.inst_misses            0                       # ITB inst misses
system.cpu.itb.stage2_mmu.stage2_tlb.misses            0                       # DTB misses
system.cpu.itb.stage2_mmu.stage2_tlb.perms_faults            0                       # Number of TLB faults due to permissions restrictions
system.cpu.itb.stage2_mmu.stage2_tlb.prefetch_faults            0                       # Number of TLB faults due to prefetch
system.cpu.itb.stage2_mmu.stage2_tlb.read_accesses            0                       # DTB read accesses
system.cpu.itb.stage2_mmu.stage2_tlb.read_hits            0                       # DTB read hits
system.cpu.itb.stage2_mmu.stage2_tlb.read_misses            0                       # DTB read misses
system.cpu.itb.stage2_mmu.stage2_tlb.walker.walkRequestOrigin_Requested::Data            0                       # Table walker requests started/completed, data/inst
system.cpu.itb.stage2_mmu.stage2_tlb.walker.walkRequestOrigin_Requested::Inst            0                       # Table walker requests started/completed, data/inst
system.cpu.itb.stage2_mmu.stage2_tlb.walker.walkRequestOrigin_Requested::total            0                       # Table walker requests started/completed, data/inst
system.cpu.itb.stage2_mmu.stage2_tlb.walker.walkRequestOrigin_Completed::Data            0                       # Table walker requests started/completed, data/inst
system.cpu.itb.stage2_mmu.stage2_tlb.walker.walkRequestOrigin_Completed::Inst            0                       # Table walker requests started/completed, data/inst
system.cpu.itb.stage2_mmu.stage2_tlb.walker.walkRequestOrigin_Completed::total            0                       # Table walker requests started/completed, data/inst
system.cpu.itb.stage2_mmu.stage2_tlb.walker.walkRequestOrigin::total            0                       # Table walker requests started/completed, data/inst
system.cpu.itb.stage2_mmu.stage2_tlb.walker.walks            0                       # Table walker walks requested
system.cpu.itb.stage2_mmu.stage2_tlb.write_accesses            0                       # DTB write accesses
system.cpu.itb.stage2_mmu.stage2_tlb.write_hits            0                       # DTB write hits
system.cpu.itb.stage2_mmu.stage2_tlb.write_misses            0                       # DTB write misses
system.cpu.itb.walker.walkRequestOrigin_Requested::Data            0                       # Table walker requests started/completed, data/inst
system.cpu.itb.walker.walkRequestOrigin_Requested::Inst            0                       # Table walker requests started/completed, data/inst
system.cpu.itb.walker.walkRequestOrigin_Requested::total            0                       # Table walker requests started/completed, data/inst
system.cpu.itb.walker.walkRequestOrigin_Completed::Data            0                       # Table walker requests started/completed, data/inst
system.cpu.itb.walker.walkRequestOrigin_Completed::Inst            0                       # Table walker requests started/completed, data/inst
system.cpu.itb.walker.walkRequestOrigin_Completed::total            0                       # Table walker requests started/completed, data/inst
system.cpu.itb.walker.walkRequestOrigin::total            0                       # Table walker requests started/completed, data/inst
system.cpu.itb.walker.walks                         0                       # Table walker walks requested
system.cpu.itb.write_accesses                       0                       # DTB write accesses
system.cpu.itb.write_hits                           0                       # DTB write hits
system.cpu.itb.write_misses                         0                       # DTB write misses
system.cpu.not_idle_fraction                 1.000000                       # Percentage of non-idle cycles
system.cpu.numCycles                        206253964                       # number of cpu cycles simulated
system.cpu.numWorkItemsCompleted                    0                       # number of work items this cpu completed
system.cpu.numWorkItemsStarted                      0                       # number of work items this cpu started
system.cpu.num_busy_cycles               206253963.998000                       # Number of busy cycles
system.cpu.num_cc_register_reads            261834000                       # number of times the CC registers were read
system.cpu.num_cc_register_writes             7036365                       # number of times the CC registers were written
system.cpu.num_conditional_control_insts      2104314                       # number of instructions that are conditional controls
system.cpu.num_fp_alu_accesses                      0                       # Number of float alu accesses
system.cpu.num_fp_insts                             0                       # number of float instructions
system.cpu.num_fp_register_reads                    0                       # number of times the floating registers were read
system.cpu.num_fp_register_writes                   0                       # number of times the floating registers were written
system.cpu.num_func_calls                      112570                       # number of times a function call or return occured
system.cpu.num_idle_cycles                   0.002000                       # Number of idle cycles
system.cpu.num_int_alu_accesses              59512698                       # Number of integer alu accesses
system.cpu.num_int_insts                     59512698                       # number of integer instructions
system.cpu.num_int_register_reads           119729109                       # number of times the integer registers were read
system.cpu.num_int_register_writes           45311196                       # number of times the integer registers were written
system.cpu.num_load_insts                    25597352                       # Number of load instructions
system.cpu.num_mem_refs                      37503510                       # number of memory refs
system.cpu.num_store_insts                   11906158                       # Number of store instructions
system.cpu.num_vec_alu_accesses                     0                       # Number of vector alu accesses
system.cpu.num_vec_insts                            0                       # number of vector instructions
system.cpu.num_vec_register_reads                  16                       # number of times the vector registers were read
system.cpu.num_vec_register_writes                  0                       # number of times the vector registers were written
system.cpu.op_class::No_OpClass                     0      0.00%      0.00% # Class of executed instruction
system.cpu.op_class::IntAlu                  20886613     33.85%     33.85% # Class of executed instruction
system.cpu.op_class::IntMult                  3313521      5.37%     39.22% # Class of executed instruction
system.cpu.op_class::IntDiv                         0      0.00%     39.22% # Class of executed instruction
system.cpu.op_class::FloatAdd                       0      0.00%     39.22% # Class of executed instruction
system.cpu.op_class::FloatCmp                       0      0.00%     39.22% # Class of executed instruction
system.cpu.op_class::FloatCvt                       0      0.00%     39.22% # Class of executed instruction
system.cpu.op_class::FloatMult                      0      0.00%     39.22% # Class of executed instruction
system.cpu.op_class::FloatMultAcc                   0      0.00%     39.22% # Class of executed instruction
system.cpu.op_class::FloatDiv                       0      0.00%     39.22% # Class of executed instruction
system.cpu.op_class::FloatMisc                      0      0.00%     39.22% # Class of executed instruction
system.cpu.op_class::FloatSqrt                      0      0.00%     39.22% # Class of executed instruction
system.cpu.op_class::SimdAdd                        0      0.00%     39.22% # Class of executed instruction
system.cpu.op_class::SimdAddAcc                     0      0.00%     39.22% # Class of executed instruction
system.cpu.op_class::SimdAlu                        0      0.00%     39.22% # Class of executed instruction
system.cpu.op_class::SimdCmp                        0      0.00%     39.22% # Class of executed instruction
system.cpu.op_class::SimdCvt                        0      0.00%     39.22% # Class of executed instruction
system.cpu.op_class::SimdMisc                       0      0.00%     39.22% # Class of executed instruction
system.cpu.op_class::SimdMult                       0      0.00%     39.22% # Class of executed instruction
system.cpu.op_class::SimdMultAcc                    0      0.00%     39.22% # Class of executed instruction
system.cpu.op_class::SimdShift                      0      0.00%     39.22% # Class of executed instruction
system.cpu.op_class::SimdShiftAcc                   0      0.00%     39.22% # Class of executed instruction
system.cpu.op_class::SimdDiv                        0      0.00%     39.22% # Class of executed instruction
system.cpu.op_class::SimdSqrt                       0      0.00%     39.22% # Class of executed instruction
system.cpu.op_class::SimdFloatAdd                   0      0.00%     39.22% # Class of executed instruction
system.cpu.op_class::SimdFloatAlu                   0      0.00%     39.22% # Class of executed instruction
system.cpu.op_class::SimdFloatCmp                   0      0.00%     39.22% # Class of executed instruction
system.cpu.op_class::SimdFloatCvt                   0      0.00%     39.22% # Class of executed instruction
system.cpu.op_class::SimdFloatDiv                   0      0.00%     39.22% # Class of executed instruction
system.cpu.op_class::SimdFloatMisc                738      0.00%     39.22% # Class of executed instruction
system.cpu.op_class::SimdFloatMult                  0      0.00%     39.22% # Class of executed instruction
system.cpu.op_class::SimdFloatMultAcc               0      0.00%     39.22% # Class of executed instruction
system.cpu.op_class::SimdFloatSqrt                  0      0.00%     39.22% # Class of executed instruction
system.cpu.op_class::SimdReduceAdd                  0      0.00%     39.22% # Class of executed instruction
system.cpu.op_class::SimdReduceAlu                  0      0.00%     39.22% # Class of executed instruction
system.cpu.op_class::SimdReduceCmp                  0      0.00%     39.22% # Class of executed instruction
system.cpu.op_class::SimdFloatReduceAdd             0      0.00%     39.22% # Class of executed instruction
system.cpu.op_class::SimdFloatReduceCmp             0      0.00%     39.22% # Class of executed instruction
system.cpu.op_class::SimdAes                        0      0.00%     39.22% # Class of executed instruction
system.cpu.op_class::SimdAesMix                     0      0.00%     39.22% # Class of executed instruction
system.cpu.op_class::SimdSha1Hash                   0      0.00%     39.22% # Class of executed instruction
system.cpu.op_class::SimdSha1Hash2                  0      0.00%     39.22% # Class of executed instruction
system.cpu.op_class::SimdSha256Hash                 0      0.00%     39.22% # Class of executed instruction
system.cpu.op_class::SimdSha256Hash2                0      0.00%     39.22% # Class of executed instruction
system.cpu.op_class::SimdShaSigma2                  0      0.00%     39.22% # Class of executed instruction
system.cpu.op_class::SimdShaSigma3                  0      0.00%     39.22% # Class of executed instruction
system.cpu.op_class::SimdPredAlu                    0      0.00%     39.22% # Class of executed instruction
system.cpu.op_class::MemRead                 25597352     41.48%     80.70% # Class of executed instruction
system.cpu.op_class::MemWrite                11906158     19.30%    100.00% # Class of executed instruction
system.cpu.op_class::FloatMemRead                   0      0.00%    100.00% # Class of executed instruction
system.cpu.op_class::FloatMemWrite                  0      0.00%    100.00% # Class of executed instruction
system.cpu.op_class::IprAccess                      0      0.00%    100.00% # Class of executed instruction
system.cpu.op_class::InstPrefetch                   0      0.00%    100.00% # Class of executed instruction
system.cpu.op_class::total                   61704382                       # Class of executed instruction
system.cpu.workload.numSyscalls                    17                       # Number of system calls
system.membus.snoop_filter.hit_multi_requests          561                       # Number of requests hitting in the snoop filter with multiple (>1) holders of the requested data.
system.membus.snoop_filter.hit_multi_snoops            0                       # Number of snoops hitting in the snoop filter with multiple (>1) holders of the requested data.
system.membus.snoop_filter.hit_single_requests        75451                       # Number of requests hitting in the snoop filter with a single holder of the requested data.
system.membus.snoop_filter.hit_single_snoops            0                       # Number of snoops hitting in the snoop filter with a single holder of the requested data.
system.membus.snoop_filter.tot_requests        151182                       # Total number of requests made to the snoop filter.
system.membus.snoop_filter.tot_snoops               0                       # Total number of snoops made to the snoop filter.
system.membus.pwrStateResidencyTicks::UNDEFINED 103126982000                       # Cumulative time (in ticks) in various power states
system.membus.trans_dist::ReadResp              70384                       # Transaction distribution
system.membus.trans_dist::WritebackDirty         6226                       # Transaction distribution
system.membus.trans_dist::WritebackClean         5660                       # Transaction distribution
system.membus.trans_dist::CleanEvict            63561                       # Transaction distribution
system.membus.trans_dist::ReadExReq              5351                       # Transaction distribution
system.membus.trans_dist::ReadExResp             5351                       # Transaction distribution
system.membus.trans_dist::ReadCleanReq           5916                       # Transaction distribution
system.membus.trans_dist::ReadSharedReq         64468                       # Transaction distribution
system.membus.pkt_count_system.cpu.icache.mem_side::system.mem_ctrls.port        17492                       # Packet count per connected master and slave (bytes)
system.membus.pkt_count_system.cpu.dcache.mem_side::system.mem_ctrls.port       209425                       # Packet count per connected master and slave (bytes)
system.membus.pkt_count::total                 226917                       # Packet count per connected master and slave (bytes)
system.membus.pkt_size_system.cpu.icache.mem_side::system.mem_ctrls.port       740864                       # Cumulative packet size per connected master and slave (bytes)
system.membus.pkt_size_system.cpu.dcache.mem_side::system.mem_ctrls.port      4866880                       # Cumulative packet size per connected master and slave (bytes)
system.membus.pkt_size::total                 5607744                       # Cumulative packet size per connected master and slave (bytes)
system.membus.snoops                                0                       # Total snoops (count)
system.membus.snoopTraffic                          0                       # Total snoop traffic (bytes)
system.membus.snoop_fanout::samples             75735                       # Request fanout histogram
system.membus.snoop_fanout::mean             0.007460                       # Request fanout histogram
system.membus.snoop_fanout::stdev            0.086050                       # Request fanout histogram
system.membus.snoop_fanout::underflows              0      0.00%      0.00% # Request fanout histogram
system.membus.snoop_fanout::0                   75170     99.25%     99.25% # Request fanout histogram
system.membus.snoop_fanout::1                     565      0.75%    100.00% # Request fanout histogram
system.membus.snoop_fanout::2                       0      0.00%    100.00% # Request fanout histogram
system.membus.snoop_fanout::overflows               0      0.00%    100.00% # Request fanout histogram
system.membus.snoop_fanout::min_value               0                       # Request fanout histogram
system.membus.snoop_fanout::max_value               1                       # Request fanout histogram
system.membus.snoop_fanout::total               75735                       # Request fanout histogram
system.membus.reqLayer0.occupancy           199073500                       # Layer occupancy (ticks)
system.membus.reqLayer0.utilization               0.2                       # Layer utilization (%)
system.membus.respLayer1.occupancy           29841750                       # Layer occupancy (ticks)
system.membus.respLayer1.utilization              0.0                       # Layer utilization (%)
system.membus.respLayer2.occupancy          372014500                       # Layer occupancy (ticks)
system.membus.respLayer2.utilization              0.4                       # Layer utilization (%)
system.voltage_domain.voltage                       1                       # Voltage in Volts
system.clk_domain.clock                          1000                       # Clock period in ticks
system.cpu_voltage_domain.voltage                   1                       # Voltage in Volts
system.mem_ctrls.pwrStateResidencyTicks::UNDEFINED 103126982000                       # Cumulative time (in ticks) in various power states
system.mem_ctrls.bytes_read::.cpu.inst         378624                       # Number of bytes read from this memory
system.mem_ctrls.bytes_read::.cpu.data        4468416                       # Number of bytes read from this memory
system.mem_ctrls.bytes_read::total            4847040                       # Number of bytes read from this memory
system.mem_ctrls.bytes_inst_read::.cpu.inst       378624                       # Number of instructions bytes read from this memory
system.mem_ctrls.bytes_inst_read::total        378624                       # Number of instructions bytes read from this memory
system.mem_ctrls.bytes_written::.writebacks       398464                       # Number of bytes written to this memory
system.mem_ctrls.bytes_written::total          398464                       # Number of bytes written to this memory
system.mem_ctrls.num_reads::.cpu.inst            5916                       # Number of read requests responded to by this memory
system.mem_ctrls.num_reads::.cpu.data           69819                       # Number of read requests responded to by this memory
system.mem_ctrls.num_reads::total               75735                       # Number of read requests responded to by this memory
system.mem_ctrls.num_writes::.writebacks         6226                       # Number of write requests responded to by this memory
system.mem_ctrls.num_writes::total               6226                       # Number of write requests responded to by this memory
system.mem_ctrls.bw_read::.cpu.inst           3671435                       # Total read bandwidth from this memory (bytes/s)
system.mem_ctrls.bw_read::.cpu.data          43329262                       # Total read bandwidth from this memory (bytes/s)
system.mem_ctrls.bw_read::total              47000697                       # Total read bandwidth from this memory (bytes/s)
system.mem_ctrls.bw_inst_read::.cpu.inst      3671435                       # Instruction read bandwidth from this memory (bytes/s)
system.mem_ctrls.bw_inst_read::total          3671435                       # Instruction read bandwidth from this memory (bytes/s)
system.mem_ctrls.bw_write::.writebacks        3863819                       # Write bandwidth from this memory (bytes/s)
system.mem_ctrls.bw_write::total              3863819                       # Write bandwidth from this memory (bytes/s)
system.mem_ctrls.bw_total::.writebacks        3863819                       # Total bandwidth to/from this memory (bytes/s)
system.mem_ctrls.bw_total::.cpu.inst          3671435                       # Total bandwidth to/from this memory (bytes/s)
system.mem_ctrls.bw_total::.cpu.data         43329262                       # Total bandwidth to/from this memory (bytes/s)
system.mem_ctrls.bw_total::total             50864516                       # Total bandwidth to/from this memory (bytes/s)
system.mem_ctrls.avgPriority_.writebacks::samples      2148.00                       # Average QoS priority value for accepted requests
system.mem_ctrls.avgPriority_.cpu.inst::samples       805.00                       # Average QoS priority value for accepted requests
system.mem_ctrls.avgPriority_.cpu.data::samples     63322.00                       # Average QoS priority value for accepted requests
system.mem_ctrls.priorityMinLatency      0.000000018750                       # per QoS priority minimum request to response latency (s)
system.mem_ctrls.priorityMaxLatency      0.062576126500                       # per QoS priority maximum request to response latency (s)
system.mem_ctrls.numReadWriteTurnArounds          125                       # Number of turnarounds from READ to WRITE
system.mem_ctrls.numWriteReadTurnArounds          125                       # Number of turnarounds from WRITE to READ
system.mem_ctrls.numStayReadState              166140                       # Number of times bus staying in READ state
system.mem_ctrls.numStayWriteState               1996                       # Number of times bus staying in WRITE state
system.mem_ctrls.readReqs                       75735                       # Number of read requests accepted
system.mem_ctrls.writeReqs                      11483                       # Number of write requests accepted
system.mem_ctrls.readBursts                     75735                       # Number of DRAM read bursts, including those serviced by the write queue
system.mem_ctrls.writeBursts                    11483                       # Number of DRAM write bursts, including those merged in the write queue
system.mem_ctrls.servicedByWrQ                  11608                       # Number of DRAM read bursts serviced by the write queue
system.mem_ctrls.mergedWrBursts                  9335                       # Number of DRAM write bursts merged with an existing one
system.mem_ctrls.neitherReadNorWriteReqs            0                       # Number of requests that are neither read nor write
system.mem_ctrls.perBankRdBursts::0               314                       # Per bank write bursts
system.mem_ctrls.perBankRdBursts::1              6868                       # Per bank write bursts
system.mem_ctrls.perBankRdBursts::2                65                       # Per bank write bursts
system.mem_ctrls.perBankRdBursts::3              8773                       # Per bank write bursts
system.mem_ctrls.perBankRdBursts::4              1237                       # Per bank write bursts
system.mem_ctrls.perBankRdBursts::5             19892                       # Per bank write bursts
system.mem_ctrls.perBankRdBursts::6             24077                       # Per bank write bursts
system.mem_ctrls.perBankRdBursts::7                99                       # Per bank write bursts
system.mem_ctrls.perBankRdBursts::8               118                       # Per bank write bursts
system.mem_ctrls.perBankRdBursts::9                40                       # Per bank write bursts
system.mem_ctrls.perBankRdBursts::10                9                       # Per bank write bursts
system.mem_ctrls.perBankRdBursts::11               35                       # Per bank write bursts
system.mem_ctrls.perBankRdBursts::12               27                       # Per bank write bursts
system.mem_ctrls.perBankRdBursts::13               13                       # Per bank write bursts
system.mem_ctrls.perBankRdBursts::14               75                       # Per bank write bursts
system.mem_ctrls.perBankRdBursts::15             2485                       # Per bank write bursts
system.mem_ctrls.perBankWrBursts::0               134                       # Per bank write bursts
system.mem_ctrls.perBankWrBursts::1                93                       # Per bank write bursts
system.mem_ctrls.perBankWrBursts::2                22                       # Per bank write bursts
system.mem_ctrls.perBankWrBursts::3                68                       # Per bank write bursts
system.mem_ctrls.perBankWrBursts::4               179                       # Per bank write bursts
system.mem_ctrls.perBankWrBursts::5               605                       # Per bank write bursts
system.mem_ctrls.perBankWrBursts::6               680                       # Per bank write bursts
system.mem_ctrls.perBankWrBursts::7                77                       # Per bank write bursts
system.mem_ctrls.perBankWrBursts::8                85                       # Per bank write bursts
system.mem_ctrls.perBankWrBursts::9                22                       # Per bank write bursts
system.mem_ctrls.perBankWrBursts::10                7                       # Per bank write bursts
system.mem_ctrls.perBankWrBursts::11               19                       # Per bank write bursts
system.mem_ctrls.perBankWrBursts::12               27                       # Per bank write bursts
system.mem_ctrls.perBankWrBursts::13                4                       # Per bank write bursts
system.mem_ctrls.perBankWrBursts::14               45                       # Per bank write bursts
system.mem_ctrls.perBankWrBursts::15               53                       # Per bank write bursts
system.mem_ctrls.avgRdQLen                       1.00                       # Average read queue length when enqueuing
system.mem_ctrls.avgWrQLen                      24.44                       # Average write queue length when enqueuing
system.mem_ctrls.totQLat                    710226500                       # Total ticks spent queuing
system.mem_ctrls.totBusLat                  320635000                       # Total ticks spent in databus transfers
system.mem_ctrls.totMemAccLat              1912607750                       # Total ticks spent from burst creation until serviced by the DRAM
system.mem_ctrls.avgQLat                     11075.31                       # Average queueing delay per DRAM burst
system.mem_ctrls.avgBusLat                    5000.00                       # Average bus latency per DRAM burst
system.mem_ctrls.avgMemAccLat                29825.31                       # Average memory access latency per DRAM burst
system.mem_ctrls.numRdRetry                         0                       # Number of times read queue was full causing retry
system.mem_ctrls.numWrRetry                         0                       # Number of times write queue was full causing retry
system.mem_ctrls.readRowHits                    34658                       # Number of row buffer hits during reads
system.mem_ctrls.writeRowHits                    1842                       # Number of row buffer hits during writes
system.mem_ctrls.readRowHitRate                 54.05                       # Row buffer hit rate for reads
system.mem_ctrls.writeRowHitRate                85.75                       # Row buffer hit rate for writes
system.mem_ctrls.readPktSize::0                     0                       # Read request sizes (log2)
system.mem_ctrls.readPktSize::1                     0                       # Read request sizes (log2)
system.mem_ctrls.readPktSize::2                     0                       # Read request sizes (log2)
system.mem_ctrls.readPktSize::3                     0                       # Read request sizes (log2)
system.mem_ctrls.readPktSize::4                     0                       # Read request sizes (log2)
system.mem_ctrls.readPktSize::5                     0                       # Read request sizes (log2)
system.mem_ctrls.readPktSize::6                 75735                       # Read request sizes (log2)
system.mem_ctrls.writePktSize::0                    0                       # Write request sizes (log2)
system.mem_ctrls.writePktSize::1                    0                       # Write request sizes (log2)
system.mem_ctrls.writePktSize::2                    0                       # Write request sizes (log2)
system.mem_ctrls.writePktSize::3                    0                       # Write request sizes (log2)
system.mem_ctrls.writePktSize::4                    0                       # Write request sizes (log2)
system.mem_ctrls.writePktSize::5                    0                       # Write request sizes (log2)
system.mem_ctrls.writePktSize::6                11483                       # Write request sizes (log2)
system.mem_ctrls.rdQLenPdf::0                   64127                       # What read queue length does an incoming req see
system.mem_ctrls.rdQLenPdf::1                       0                       # What read queue length does an incoming req see
system.mem_ctrls.rdQLenPdf::2                       0                       # What read queue length does an incoming req see
system.mem_ctrls.rdQLenPdf::3                       0                       # What read queue length does an incoming req see
system.mem_ctrls.rdQLenPdf::4                       0                       # What read queue length does an incoming req see
system.mem_ctrls.rdQLenPdf::5                       0                       # What read queue length does an incoming req see
system.mem_ctrls.rdQLenPdf::6                       0                       # What read queue length does an incoming req see
system.mem_ctrls.rdQLenPdf::7                       0                       # What read queue length does an incoming req see
system.mem_ctrls.rdQLenPdf::8                       0                       # What read queue length does an incoming req see
system.mem_ctrls.rdQLenPdf::9                       0                       # What read queue length does an incoming req see
system.mem_ctrls.rdQLenPdf::10                      0                       # What read queue length does an incoming req see
system.mem_ctrls.rdQLenPdf::11                      0                       # What read queue length does an incoming req see
system.mem_ctrls.rdQLenPdf::12                      0                       # What read queue length does an incoming req see
system.mem_ctrls.rdQLenPdf::13                      0                       # What read queue length does an incoming req see
system.mem_ctrls.rdQLenPdf::14                      0                       # What read queue length does an incoming req see
system.mem_ctrls.rdQLenPdf::15                      0                       # What read queue length does an incoming req see
system.mem_ctrls.rdQLenPdf::16                      0                       # What read queue length does an incoming req see
system.mem_ctrls.rdQLenPdf::17                      0                       # What read queue length does an incoming req see
system.mem_ctrls.rdQLenPdf::18                      0                       # What read queue length does an incoming req see
system.mem_ctrls.rdQLenPdf::19                      0                       # What read queue length does an incoming req see
system.mem_ctrls.rdQLenPdf::20                      0                       # What read queue length does an incoming req see
system.mem_ctrls.rdQLenPdf::21                      0                       # What read queue length does an incoming req see
system.mem_ctrls.rdQLenPdf::22                      0                       # What read queue length does an incoming req see
system.mem_ctrls.rdQLenPdf::23                      0                       # What read queue length does an incoming req see
system.mem_ctrls.rdQLenPdf::24                      0                       # What read queue length does an incoming req see
system.mem_ctrls.rdQLenPdf::25                      0                       # What read queue length does an incoming req see
system.mem_ctrls.rdQLenPdf::26                      0                       # What read queue length does an incoming req see
system.mem_ctrls.rdQLenPdf::27                      0                       # What read queue length does an incoming req see
system.mem_ctrls.rdQLenPdf::28                      0                       # What read queue length does an incoming req see
system.mem_ctrls.rdQLenPdf::29                      0                       # What read queue length does an incoming req see
system.mem_ctrls.rdQLenPdf::30                      0                       # What read queue length does an incoming req see
system.mem_ctrls.rdQLenPdf::31                      0                       # What read queue length does an incoming req see
system.mem_ctrls.wrQLenPdf::0                       1                       # What write queue length does an incoming req see
system.mem_ctrls.wrQLenPdf::1                       1                       # What write queue length does an incoming req see
system.mem_ctrls.wrQLenPdf::2                       1                       # What write queue length does an incoming req see
system.mem_ctrls.wrQLenPdf::3                       1                       # What write queue length does an incoming req see
system.mem_ctrls.wrQLenPdf::4                       1                       # What write queue length does an incoming req see
system.mem_ctrls.wrQLenPdf::5                       1                       # What write queue length does an incoming req see
system.mem_ctrls.wrQLenPdf::6                       1                       # What write queue length does an incoming req see
system.mem_ctrls.wrQLenPdf::7                       1                       # What write queue length does an incoming req see
system.mem_ctrls.wrQLenPdf::8                       1                       # What write queue length does an incoming req see
system.mem_ctrls.wrQLenPdf::9                       1                       # What write queue length does an incoming req see
system.mem_ctrls.wrQLenPdf::10                      1                       # What write queue length does an incoming req see
system.mem_ctrls.wrQLenPdf::11                      1                       # What write queue length does an incoming req see
system.mem_ctrls.wrQLenPdf::12                      1                       # What write queue length does an incoming req see
system.mem_ctrls.wrQLenPdf::13                      1                       # What write queue length does an incoming req see
system.mem_ctrls.wrQLenPdf::14                      1                       # What write queue length does an incoming req see
system.mem_ctrls.wrQLenPdf::15                     58                       # What write queue length does an incoming req see
system.mem_ctrls.wrQLenPdf::16                     61                       # What write queue length does an incoming req see
system.mem_ctrls.wrQLenPdf::17                    126                       # What write queue length does an incoming req see
system.mem_ctrls.wrQLenPdf::18                    128                       # What write queue length does an incoming req see
system.mem_ctrls.wrQLenPdf::19                    126                       # What write queue length does an incoming req see
system.mem_ctrls.wrQLenPdf::20                    126                       # What write queue length does an incoming req see
system.mem_ctrls.wrQLenPdf::21                    126                       # What write queue length does an incoming req see
system.mem_ctrls.wrQLenPdf::22                    127                       # What write queue length does an incoming req see
system.mem_ctrls.wrQLenPdf::23                    126                       # What write queue length does an incoming req see
system.mem_ctrls.wrQLenPdf::24                    126                       # What write queue length does an incoming req see
system.mem_ctrls.wrQLenPdf::25                    126                       # What write queue length does an incoming req see
system.mem_ctrls.wrQLenPdf::26                    126                       # What write queue length does an incoming req see
system.mem_ctrls.wrQLenPdf::27                    126                       # What write queue length does an incoming req see
system.mem_ctrls.wrQLenPdf::28                    125                       # What write queue length does an incoming req see
system.mem_ctrls.wrQLenPdf::29                    125                       # What write queue length does an incoming req see
system.mem_ctrls.wrQLenPdf::30                    125                       # What write queue length does an incoming req see
system.mem_ctrls.wrQLenPdf::31                    125                       # What write queue length does an incoming req see
system.mem_ctrls.wrQLenPdf::32                    125                       # What write queue length does an incoming req see
system.mem_ctrls.wrQLenPdf::33                      0                       # What write queue length does an incoming req see
system.mem_ctrls.wrQLenPdf::34                      0                       # What write queue length does an incoming req see
system.mem_ctrls.wrQLenPdf::35                      0                       # What write queue length does an incoming req see
system.mem_ctrls.wrQLenPdf::36                      0                       # What write queue length does an incoming req see
system.mem_ctrls.wrQLenPdf::37                      0                       # What write queue length does an incoming req see
system.mem_ctrls.wrQLenPdf::38                      0                       # What write queue length does an incoming req see
system.mem_ctrls.wrQLenPdf::39                      0                       # What write queue length does an incoming req see
system.mem_ctrls.wrQLenPdf::40                      0                       # What write queue length does an incoming req see
system.mem_ctrls.wrQLenPdf::41                      0                       # What write queue length does an incoming req see
system.mem_ctrls.wrQLenPdf::42                      0                       # What write queue length does an incoming req see
system.mem_ctrls.wrQLenPdf::43                      0                       # What write queue length does an incoming req see
system.mem_ctrls.wrQLenPdf::44                      0                       # What write queue length does an incoming req see
system.mem_ctrls.wrQLenPdf::45                      0                       # What write queue length does an incoming req see
system.mem_ctrls.wrQLenPdf::46                      0                       # What write queue length does an incoming req see
system.mem_ctrls.wrQLenPdf::47                      0                       # What write queue length does an incoming req see
system.mem_ctrls.wrQLenPdf::48                      0                       # What write queue length does an incoming req see
system.mem_ctrls.wrQLenPdf::49                      0                       # What write queue length does an incoming req see
system.mem_ctrls.wrQLenPdf::50                      0                       # What write queue length does an incoming req see
system.mem_ctrls.wrQLenPdf::51                      0                       # What write queue length does an incoming req see
system.mem_ctrls.wrQLenPdf::52                      0                       # What write queue length does an incoming req see
system.mem_ctrls.wrQLenPdf::53                      0                       # What write queue length does an incoming req see
system.mem_ctrls.wrQLenPdf::54                      0                       # What write queue length does an incoming req see
system.mem_ctrls.wrQLenPdf::55                      0                       # What write queue length does an incoming req see
system.mem_ctrls.wrQLenPdf::56                      0                       # What write queue length does an incoming req see
system.mem_ctrls.wrQLenPdf::57                      0                       # What write queue length does an incoming req see
system.mem_ctrls.wrQLenPdf::58                      0                       # What write queue length does an incoming req see
system.mem_ctrls.wrQLenPdf::59                      0                       # What write queue length does an incoming req see
system.mem_ctrls.wrQLenPdf::60                      0                       # What write queue length does an incoming req see
system.mem_ctrls.wrQLenPdf::61                      0                       # What write queue length does an incoming req see
system.mem_ctrls.wrQLenPdf::62                      0                       # What write queue length does an incoming req see
system.mem_ctrls.wrQLenPdf::63                      0                       # What write queue length does an incoming req see
system.mem_ctrls.bytesPerActivate::samples        29737                       # Bytes accessed per row activation
system.mem_ctrls.bytesPerActivate::mean    142.462790                       # Bytes accessed per row activation
system.mem_ctrls.bytesPerActivate::gmean   111.200512                       # Bytes accessed per row activation
system.mem_ctrls.bytesPerActivate::stdev   124.143911                       # Bytes accessed per row activation
system.mem_ctrls.bytesPerActivate::0-127        15475     52.04%     52.04% # Bytes accessed per row activation
system.mem_ctrls.bytesPerActivate::128-255         8855     29.78%     81.82% # Bytes accessed per row activation
system.mem_ctrls.bytesPerActivate::256-383         3676     12.36%     94.18% # Bytes accessed per row activation
system.mem_ctrls.bytesPerActivate::384-511         1223      4.11%     98.29% # Bytes accessed per row activation
system.mem_ctrls.bytesPerActivate::512-639          266      0.89%     99.19% # Bytes accessed per row activation
system.mem_ctrls.bytesPerActivate::640-767           38      0.13%     99.31% # Bytes accessed per row activation
system.mem_ctrls.bytesPerActivate::768-895           21      0.07%     99.38% # Bytes accessed per row activation
system.mem_ctrls.bytesPerActivate::896-1023           19      0.06%     99.45% # Bytes accessed per row activation
system.mem_ctrls.bytesPerActivate::1024-1151          164      0.55%    100.00% # Bytes accessed per row activation
system.mem_ctrls.bytesPerActivate::total        29737                       # Bytes accessed per row activation
system.mem_ctrls.rdPerTurnAround::samples          125                       # Reads before turning the bus around for writes
system.mem_ctrls.rdPerTurnAround::mean     512.864000                       # Reads before turning the bus around for writes
system.mem_ctrls.rdPerTurnAround::gmean     37.838141                       # Reads before turning the bus around for writes
system.mem_ctrls.rdPerTurnAround::stdev   2025.664918                       # Reads before turning the bus around for writes
system.mem_ctrls.rdPerTurnAround::0-511           118     94.40%     94.40% # Reads before turning the bus around for writes
system.mem_ctrls.rdPerTurnAround::4096-4607            1      0.80%     95.20% # Reads before turning the bus around for writes
system.mem_ctrls.rdPerTurnAround::7168-7679            2      1.60%     96.80% # Reads before turning the bus around for writes
system.mem_ctrls.rdPerTurnAround::9216-9727            2      1.60%     98.40% # Reads before turning the bus around for writes
system.mem_ctrls.rdPerTurnAround::9728-10239            1      0.80%     99.20% # Reads before turning the bus around for writes
system.mem_ctrls.rdPerTurnAround::11264-11775            1      0.80%    100.00% # Reads before turning the bus around for writes
system.mem_ctrls.rdPerTurnAround::total           125                       # Reads before turning the bus around for writes
system.mem_ctrls.wrPerTurnAround::samples          125                       # Writes before turning the bus around for reads
system.mem_ctrls.wrPerTurnAround::mean      16.960000                       # Writes before turning the bus around for reads
system.mem_ctrls.wrPerTurnAround::gmean     16.929377                       # Writes before turning the bus around for reads
system.mem_ctrls.wrPerTurnAround::stdev      1.027053                       # Writes before turning the bus around for reads
system.mem_ctrls.wrPerTurnAround::16               65     52.00%     52.00% # Writes before turning the bus around for reads
system.mem_ctrls.wrPerTurnAround::17                3      2.40%     54.40% # Writes before turning the bus around for reads
system.mem_ctrls.wrPerTurnAround::18               54     43.20%     97.60% # Writes before turning the bus around for reads
system.mem_ctrls.wrPerTurnAround::19                3      2.40%    100.00% # Writes before turning the bus around for reads
system.mem_ctrls.wrPerTurnAround::total           125                       # Writes before turning the bus around for reads
system.mem_ctrls.bytesReadDRAM                4104128                       # Total number of bytes read from DRAM
system.mem_ctrls.bytesReadWrQ                  742912                       # Total number of bytes read from write queue
system.mem_ctrls.bytesWritten                  135680                       # Total number of bytes written to DRAM
system.mem_ctrls.bytesReadSys                 4847040                       # Total read bytes from the system interface side
system.mem_ctrls.bytesWrittenSys               734912                       # Total written bytes from the system interface side
system.mem_ctrls.avgRdBW                        39.80                       # Average DRAM read bandwidth in MiByte/s
system.mem_ctrls.avgWrBW                         1.32                       # Average achieved write bandwidth in MiByte/s
system.mem_ctrls.avgRdBWSys                     47.00                       # Average system read bandwidth in MiByte/s
system.mem_ctrls.avgWrBWSys                      7.13                       # Average system write bandwidth in MiByte/s
system.mem_ctrls.peakBW                      12800.00                       # Theoretical peak bandwidth in MiByte/s
system.mem_ctrls.busUtil                         0.32                       # Data bus utilization in percentage
system.mem_ctrls.busUtilRead                     0.31                       # Data bus utilization in percentage for reads
system.mem_ctrls.busUtilWrite                    0.01                       # Data bus utilization in percentage for writes
system.mem_ctrls.totGap                  103126974000                       # Total gap between requests
system.mem_ctrls.avgGap                    1182404.71                       # Average gap between requests
system.mem_ctrls.masterReadBytes::.cpu.inst        51520                       # Per-master bytes read from memory
system.mem_ctrls.masterReadBytes::.cpu.data      4052608                       # Per-master bytes read from memory
system.mem_ctrls.masterWriteBytes::.writebacks       135680                       # Per-master bytes write to memory
system.mem_ctrls.masterReadRate::.cpu.inst 499578.277196165756                       # Per-master bytes read from memory rate (Bytes/sec)
system.mem_ctrls.masterReadRate::.cpu.data 39297261.700143612921                       # Per-master bytes read from memory rate (Bytes/sec)
system.mem_ctrls.masterWriteRate::.writebacks 1315659.562305430416                       # Per-master bytes write to memory rate (Bytes/sec)
system.mem_ctrls.masterReadAccesses::.cpu.inst         5916                       # Per-master read serviced memory accesses
system.mem_ctrls.masterReadAccesses::.cpu.data        69819                       # Per-master read serviced memory accesses
system.mem_ctrls.masterWriteAccesses::.writebacks        11483                       # Per-master write serviced memory accesses
system.mem_ctrls.masterReadTotalLat::.cpu.inst     21367250                       # Per-master read total memory access latency
system.mem_ctrls.masterReadTotalLat::.cpu.data   1891240500                       # Per-master read total memory access latency
system.mem_ctrls.masterWriteTotalLat::.writebacks 2444080779000                       # Per-master write total memory access latency
system.mem_ctrls.masterReadAvgLat::.cpu.inst      3611.77                       # Per-master read average memory access latency
system.mem_ctrls.masterReadAvgLat::.cpu.data     27087.76                       # Per-master read average memory access latency
system.mem_ctrls.masterWriteAvgLat::.writebacks 212843401.46                       # Per-master write average memory access latency
system.mem_ctrls.pageHitRate                    55.07                       # Row buffer hit rate, read and write combined
system.mem_ctrls.rank1.actEnergy             17800020                       # Energy for activate commands per rank (pJ)
system.mem_ctrls.rank1.preEnergy              9441960                       # Energy for precharge commands per rank (pJ)
system.mem_ctrls.rank1.readEnergy            20006280                       # Energy for read commands per rank (pJ)
system.mem_ctrls.rank1.writeEnergy            1367640                       # Energy for write commands per rank (pJ)
system.mem_ctrls.rank1.refreshEnergy     8140292160.000001                       # Energy for refresh commands per rank (pJ)
system.mem_ctrls.rank1.actBackEnergy       5613306420                       # Energy for active background per rank (pJ)
system.mem_ctrls.rank1.preBackEnergy      34873766400                       # Energy for precharge background per rank (pJ)
system.mem_ctrls.rank1.actPowerDownEnergy            0                       # Energy for active power-down per rank (pJ)
system.mem_ctrls.rank1.prePowerDownEnergy            0                       # Energy for precharge power-down per rank (pJ)
system.mem_ctrls.rank1.selfRefreshEnergy            0                       # Energy for self refresh per rank (pJ)
system.mem_ctrls.rank1.totalEnergy        48675980880                       # Total energy per rank (pJ)
system.mem_ctrls.rank1.averagePower        472.000440                       # Core power per rank (mW)
system.mem_ctrls.rank1.totalIdleTime                0                       # Total Idle time Per DRAM Rank
system.mem_ctrls.rank1.memoryStateTime::IDLE  90601445250                       # Time in different power states
system.mem_ctrls.rank1.memoryStateTime::REF   3443440000                       # Time in different power states
system.mem_ctrls.rank1.memoryStateTime::SREF            0                       # Time in different power states
system.mem_ctrls.rank1.memoryStateTime::PRE_PDN            0                       # Time in different power states
system.mem_ctrls.rank1.memoryStateTime::ACT   9082096750                       # Time in different power states
system.mem_ctrls.rank1.memoryStateTime::ACT_PDN            0                       # Time in different power states
system.mem_ctrls.rank0.actEnergy            194593560                       # Energy for activate commands per rank (pJ)
system.mem_ctrls.rank0.preEnergy            103409955                       # Energy for precharge commands per rank (pJ)
system.mem_ctrls.rank0.readEnergy           437860500                       # Energy for read commands per rank (pJ)
system.mem_ctrls.rank0.writeEnergy            9698760                       # Energy for write commands per rank (pJ)
system.mem_ctrls.rank0.refreshEnergy     8140292160.000001                       # Energy for refresh commands per rank (pJ)
system.mem_ctrls.rank0.actBackEnergy      36469025790                       # Energy for active background per rank (pJ)
system.mem_ctrls.rank0.preBackEnergy       8890002720                       # Energy for precharge background per rank (pJ)
system.mem_ctrls.rank0.actPowerDownEnergy            0                       # Energy for active power-down per rank (pJ)
system.mem_ctrls.rank0.prePowerDownEnergy            0                       # Energy for precharge power-down per rank (pJ)
system.mem_ctrls.rank0.selfRefreshEnergy            0                       # Energy for self refresh per rank (pJ)
system.mem_ctrls.rank0.totalEnergy        54244883445                       # Total energy per rank (pJ)
system.mem_ctrls.rank0.averagePower        526.000882                       # Core power per rank (mW)
system.mem_ctrls.rank0.totalIdleTime                0                       # Total Idle time Per DRAM Rank
system.mem_ctrls.rank0.memoryStateTime::IDLE  22783623000                       # Time in different power states
system.mem_ctrls.rank0.memoryStateTime::REF   3443440000                       # Time in different power states
system.mem_ctrls.rank0.memoryStateTime::SREF            0                       # Time in different power states
system.mem_ctrls.rank0.memoryStateTime::PRE_PDN            0                       # Time in different power states
system.mem_ctrls.rank0.memoryStateTime::ACT  76899919000                       # Time in different power states
system.mem_ctrls.rank0.memoryStateTime::ACT_PDN            0                       # Time in different power states
system.cpu_clk_domain.clock                       500                       # Clock period in ticks
system.cpu.numPwrStateTransitions                   1                       # Number of power state transitions
system.cpu.pwrStateResidencyTicks::ON    103126982000                       # Cumulative time (in ticks) in various power states
system.cpu.icache.pwrStateResidencyTicks::UNDEFINED 103126982000                       # Cumulative time (in ticks) in various power states
system.cpu.icache.demand_hits::.cpu.inst     61450336                       # number of demand (read+write) hits
system.cpu.icache.demand_hits::total         61450336                       # number of demand (read+write) hits
system.cpu.icache.overall_hits::.cpu.inst     61450336                       # number of overall hits
system.cpu.icache.overall_hits::total        61450336                       # number of overall hits
system.cpu.icache.demand_misses::.cpu.inst         5916                       # number of demand (read+write) misses
system.cpu.icache.demand_misses::total           5916                       # number of demand (read+write) misses
system.cpu.icache.overall_misses::.cpu.inst         5916                       # number of overall misses
system.cpu.icache.overall_misses::total          5916                       # number of overall misses
system.cpu.icache.demand_miss_latency::.cpu.inst    160790500                       # number of demand (read+write) miss cycles
system.cpu.icache.demand_miss_latency::total    160790500                       # number of demand (read+write) miss cycles
system.cpu.icache.overall_miss_latency::.cpu.inst    160790500                       # number of overall miss cycles
system.cpu.icache.overall_miss_latency::total    160790500                       # number of overall miss cycles
system.cpu.icache.demand_accesses::.cpu.inst     61456252                       # number of demand (read+write) accesses
system.cpu.icache.demand_accesses::total     61456252                       # number of demand (read+write) accesses
system.cpu.icache.overall_accesses::.cpu.inst     61456252                       # number of overall (read+write) accesses
system.cpu.icache.overall_accesses::total     61456252                       # number of overall (read+write) accesses
system.cpu.icache.demand_miss_rate::.cpu.inst     0.000096                       # miss rate for demand accesses
system.cpu.icache.demand_miss_rate::total     0.000096                       # miss rate for demand accesses
system.cpu.icache.overall_miss_rate::.cpu.inst     0.000096                       # miss rate for overall accesses
system.cpu.icache.overall_miss_rate::total     0.000096                       # miss rate for overall accesses
system.cpu.icache.demand_avg_miss_latency::.cpu.inst 27178.921569                       # average overall miss latency
system.cpu.icache.demand_avg_miss_latency::total 27178.921569                       # average overall miss latency
system.cpu.icache.overall_avg_miss_latency::.cpu.inst 27178.921569                       # average overall miss latency
system.cpu.icache.overall_avg_miss_latency::total 27178.921569                       # average overall miss latency
system.cpu.icache.blocked_cycles::no_mshrs            0                       # number of cycles access was blocked
system.cpu.icache.blocked_cycles::no_targets            0                       # number of cycles access was blocked
system.cpu.icache.blocked::no_mshrs                 0                       # number of cycles access was blocked
system.cpu.icache.blocked::no_targets               0                       # number of cycles access was blocked
system.cpu.icache.avg_blocked_cycles::no_mshrs          nan                       # average number of cycles each access was blocked
system.cpu.icache.avg_blocked_cycles::no_targets          nan                       # average number of cycles each access was blocked
system.cpu.icache.writebacks::.writebacks         5660                       # number of writebacks
system.cpu.icache.writebacks::total              5660                       # number of writebacks
system.cpu.icache.demand_mshr_misses::.cpu.inst         5916                       # number of demand (read+write) MSHR misses
system.cpu.icache.demand_mshr_misses::total         5916                       # number of demand (read+write) MSHR misses
system.cpu.icache.overall_mshr_misses::.cpu.inst         5916                       # number of overall MSHR misses
system.cpu.icache.overall_mshr_misses::total         5916                       # number of overall MSHR misses
system.cpu.icache.demand_mshr_miss_latency::.cpu.inst    154874500                       # number of demand (read+write) MSHR miss cycles
system.cpu.icache.demand_mshr_miss_latency::total    154874500                       # number of demand (read+write) MSHR miss cycles
system.cpu.icache.overall_mshr_miss_latency::.cpu.inst    154874500                       # number of overall MSHR miss cycles
system.cpu.icache.overall_mshr_miss_latency::total    154874500                       # number of overall MSHR miss cycles
system.cpu.icache.demand_mshr_miss_rate::.cpu.inst     0.000096                       # mshr miss rate for demand accesses
system.cpu.icache.demand_mshr_miss_rate::total     0.000096                       # mshr miss rate for demand accesses
system.cpu.icache.overall_mshr_miss_rate::.cpu.inst     0.000096                       # mshr miss rate for overall accesses
system.cpu.icache.overall_mshr_miss_rate::total     0.000096                       # mshr miss rate for overall accesses
system.cpu.icache.demand_avg_mshr_miss_latency::.cpu.inst 26178.921569                       # average overall mshr miss latency
system.cpu.icache.demand_avg_mshr_miss_latency::total 26178.921569                       # average overall mshr miss latency
system.cpu.icache.overall_avg_mshr_miss_latency::.cpu.inst 26178.921569                       # average overall mshr miss latency
system.cpu.icache.overall_avg_mshr_miss_latency::total 26178.921569                       # average overall mshr miss latency
system.cpu.icache.replacements                   5660                       # number of replacements
system.cpu.icache.ReadReq_hits::.cpu.inst     61450336                       # number of ReadReq hits
system.cpu.icache.ReadReq_hits::total        61450336                       # number of ReadReq hits
system.cpu.icache.ReadReq_misses::.cpu.inst         5916                       # number of ReadReq misses
system.cpu.icache.ReadReq_misses::total          5916                       # number of ReadReq misses
system.cpu.icache.ReadReq_miss_latency::.cpu.inst    160790500                       # number of ReadReq miss cycles
system.cpu.icache.ReadReq_miss_latency::total    160790500                       # number of ReadReq miss cycles
system.cpu.icache.ReadReq_accesses::.cpu.inst     61456252                       # number of ReadReq accesses(hits+misses)
system.cpu.icache.ReadReq_accesses::total     61456252                       # number of ReadReq accesses(hits+misses)
system.cpu.icache.ReadReq_miss_rate::.cpu.inst     0.000096                       # miss rate for ReadReq accesses
system.cpu.icache.ReadReq_miss_rate::total     0.000096                       # miss rate for ReadReq accesses
system.cpu.icache.ReadReq_avg_miss_latency::.cpu.inst 27178.921569                       # average ReadReq miss latency
system.cpu.icache.ReadReq_avg_miss_latency::total 27178.921569                       # average ReadReq miss latency
system.cpu.icache.ReadReq_mshr_misses::.cpu.inst         5916                       # number of ReadReq MSHR misses
system.cpu.icache.ReadReq_mshr_misses::total         5916                       # number of ReadReq MSHR misses
system.cpu.icache.ReadReq_mshr_miss_latency::.cpu.inst    154874500                       # number of ReadReq MSHR miss cycles
system.cpu.icache.ReadReq_mshr_miss_latency::total    154874500                       # number of ReadReq MSHR miss cycles
system.cpu.icache.ReadReq_mshr_miss_rate::.cpu.inst     0.000096                       # mshr miss rate for ReadReq accesses
system.cpu.icache.ReadReq_mshr_miss_rate::total     0.000096                       # mshr miss rate for ReadReq accesses
system.cpu.icache.ReadReq_avg_mshr_miss_latency::.cpu.inst 26178.921569                       # average ReadReq mshr miss latency
system.cpu.icache.ReadReq_avg_mshr_miss_latency::total 26178.921569                       # average ReadReq mshr miss latency
system.cpu.icache.tags.pwrStateResidencyTicks::UNDEFINED 103126982000                       # Cumulative time (in ticks) in various power states
system.cpu.icache.tags.tagsinuse           252.888979                       # Cycle average of tags in use
system.cpu.icache.tags.total_refs            61456252                       # Total number of references to valid blocks.
system.cpu.icache.tags.sampled_refs              5916                       # Sample count of references to valid blocks.
system.cpu.icache.tags.avg_refs          10388.142664                       # Average number of references to valid blocks.
system.cpu.icache.tags.warmup_cycle             77000                       # Cycle when the warmup percentage was hit.
system.cpu.icache.tags.occ_blocks::.cpu.inst   252.888979                       # Average occupied blocks per requestor
system.cpu.icache.tags.occ_percent::.cpu.inst     0.987848                       # Average percentage of cache occupancy
system.cpu.icache.tags.occ_percent::total     0.987848                       # Average percentage of cache occupancy
system.cpu.icache.tags.occ_task_id_blocks::1024          256                       # Occupied blocks per task id
system.cpu.icache.tags.age_task_id_blocks_1024::0           76                       # Occupied blocks per task id
system.cpu.icache.tags.age_task_id_blocks_1024::1           96                       # Occupied blocks per task id
system.cpu.icache.tags.age_task_id_blocks_1024::4           84                       # Occupied blocks per task id
system.cpu.icache.tags.occ_task_id_percent::1024            1                       # Percentage of cache occupancy per task id
system.cpu.icache.tags.tag_accesses         122918420                       # Number of tag accesses
system.cpu.icache.tags.data_accesses        122918420                       # Number of data accesses
system.cpu.dtb.walker.pwrStateResidencyTicks::UNDEFINED 103126982000                       # Cumulative time (in ticks) in various power states
system.cpu.dtb.stage2_mmu.stage2_tlb.walker.pwrStateResidencyTicks::UNDEFINED 103126982000                       # Cumulative time (in ticks) in various power states
system.cpu.itb.walker.pwrStateResidencyTicks::UNDEFINED 103126982000                       # Cumulative time (in ticks) in various power states
system.cpu.itb.stage2_mmu.stage2_tlb.walker.pwrStateResidencyTicks::UNDEFINED 103126982000                       # Cumulative time (in ticks) in various power states
system.cpu.dcache.pwrStateResidencyTicks::UNDEFINED 103126982000                       # Cumulative time (in ticks) in various power states
system.cpu.dcache.demand_hits::.cpu.data     37410211                       # number of demand (read+write) hits
system.cpu.dcache.demand_hits::total         37410211                       # number of demand (read+write) hits
system.cpu.dcache.overall_hits::.cpu.data     37410211                       # number of overall hits
system.cpu.dcache.overall_hits::total        37410211                       # number of overall hits
system.cpu.dcache.demand_misses::.cpu.data        69819                       # number of demand (read+write) misses
system.cpu.dcache.demand_misses::total          69819                       # number of demand (read+write) misses
system.cpu.dcache.overall_misses::.cpu.data        69819                       # number of overall misses
system.cpu.dcache.overall_misses::total         69819                       # number of overall misses
system.cpu.dcache.demand_miss_latency::.cpu.data   4084016000                       # number of demand (read+write) miss cycles
system.cpu.dcache.demand_miss_latency::total   4084016000                       # number of demand (read+write) miss cycles
system.cpu.dcache.overall_miss_latency::.cpu.data   4084016000                       # number of overall miss cycles
system.cpu.dcache.overall_miss_latency::total   4084016000                       # number of overall miss cycles
system.cpu.dcache.demand_accesses::.cpu.data     37480030                       # number of demand (read+write) accesses
system.cpu.dcache.demand_accesses::total     37480030                       # number of demand (read+write) accesses
system.cpu.dcache.overall_accesses::.cpu.data     37480030                       # number of overall (read+write) accesses
system.cpu.dcache.overall_accesses::total     37480030                       # number of overall (read+write) accesses
system.cpu.dcache.demand_miss_rate::.cpu.data     0.001863                       # miss rate for demand accesses
system.cpu.dcache.demand_miss_rate::total     0.001863                       # miss rate for demand accesses
system.cpu.dcache.overall_miss_rate::.cpu.data     0.001863                       # miss rate for overall accesses
system.cpu.dcache.overall_miss_rate::total     0.001863                       # miss rate for overall accesses
system.cpu.dcache.demand_avg_miss_latency::.cpu.data 58494.335353                       # average overall miss latency
system.cpu.dcache.demand_avg_miss_latency::total 58494.335353                       # average overall miss latency
system.cpu.dcache.overall_avg_miss_latency::.cpu.data 58494.335353                       # average overall miss latency
system.cpu.dcache.overall_avg_miss_latency::total 58494.335353                       # average overall miss latency
system.cpu.dcache.blocked_cycles::no_mshrs            0                       # number of cycles access was blocked
system.cpu.dcache.blocked_cycles::no_targets            0                       # number of cycles access was blocked
system.cpu.dcache.blocked::no_mshrs                 0                       # number of cycles access was blocked
system.cpu.dcache.blocked::no_targets               0                       # number of cycles access was blocked
system.cpu.dcache.avg_blocked_cycles::no_mshrs          nan                       # average number of cycles each access was blocked
system.cpu.dcache.avg_blocked_cycles::no_targets          nan                       # average number of cycles each access was blocked
system.cpu.dcache.writebacks::.writebacks         6226                       # number of writebacks
system.cpu.dcache.writebacks::total              6226                       # number of writebacks
system.cpu.dcache.demand_mshr_misses::.cpu.data        69819                       # number of demand (read+write) MSHR misses
system.cpu.dcache.demand_mshr_misses::total        69819                       # number of demand (read+write) MSHR misses
system.cpu.dcache.overall_mshr_misses::.cpu.data        69819                       # number of overall MSHR misses
system.cpu.dcache.overall_mshr_misses::total        69819                       # number of overall MSHR misses
system.cpu.dcache.demand_mshr_miss_latency::.cpu.data   4014197000                       # number of demand (read+write) MSHR miss cycles
system.cpu.dcache.demand_mshr_miss_latency::total   4014197000                       # number of demand (read+write) MSHR miss cycles
system.cpu.dcache.overall_mshr_miss_latency::.cpu.data   4014197000                       # number of overall MSHR miss cycles
system.cpu.dcache.overall_mshr_miss_latency::total   4014197000                       # number of overall MSHR miss cycles
system.cpu.dcache.demand_mshr_miss_rate::.cpu.data     0.001863                       # mshr miss rate for demand accesses
system.cpu.dcache.demand_mshr_miss_rate::total     0.001863                       # mshr miss rate for demand accesses
system.cpu.dcache.overall_mshr_miss_rate::.cpu.data     0.001863                       # mshr miss rate for overall accesses
system.cpu.dcache.overall_mshr_miss_rate::total     0.001863                       # mshr miss rate for overall accesses
system.cpu.dcache.demand_avg_mshr_miss_latency::.cpu.data 57494.335353                       # average overall mshr miss latency
system.cpu.dcache.demand_avg_mshr_miss_latency::total 57494.335353                       # average overall mshr miss latency
system.cpu.dcache.overall_avg_mshr_miss_latency::.cpu.data 57494.335353                       # average overall mshr miss latency
system.cpu.dcache.overall_avg_mshr_miss_latency::total 57494.335353                       # average overall mshr miss latency
system.cpu.dcache.replacements                  69787                       # number of replacements
system.cpu.dcache.ReadReq_hits::.cpu.data     25509750                       # number of ReadReq hits
system.cpu.dcache.ReadReq_hits::total        25509750                       # number of ReadReq hits
system.cpu.dcache.ReadReq_misses::.cpu.data        64468                       # number of ReadReq misses
system.cpu.dcache.ReadReq_misses::total         64468                       # number of ReadReq misses
system.cpu.dcache.ReadReq_miss_latency::.cpu.data   3940265000                       # number of ReadReq miss cycles
system.cpu.dcache.ReadReq_miss_latency::total   3940265000                       # number of ReadReq miss cycles
system.cpu.dcache.ReadReq_accesses::.cpu.data     25574218                       # number of ReadReq accesses(hits+misses)
system.cpu.dcache.ReadReq_accesses::total     25574218                       # number of ReadReq accesses(hits+misses)
system.cpu.dcache.ReadReq_miss_rate::.cpu.data     0.002521                       # miss rate for ReadReq accesses
system.cpu.dcache.ReadReq_miss_rate::total     0.002521                       # miss rate for ReadReq accesses
system.cpu.dcache.ReadReq_avg_miss_latency::.cpu.data 61119.702798                       # average ReadReq miss latency
system.cpu.dcache.ReadReq_avg_miss_latency::total 61119.702798                       # average ReadReq miss latency
system.cpu.dcache.ReadReq_mshr_misses::.cpu.data        64468                       # number of ReadReq MSHR misses
system.cpu.dcache.ReadReq_mshr_misses::total        64468                       # number of ReadReq MSHR misses
system.cpu.dcache.ReadReq_mshr_miss_latency::.cpu.data   3875797000                       # number of ReadReq MSHR miss cycles
system.cpu.dcache.ReadReq_mshr_miss_latency::total   3875797000                       # number of ReadReq MSHR miss cycles
system.cpu.dcache.ReadReq_mshr_miss_rate::.cpu.data     0.002521                       # mshr miss rate for ReadReq accesses
system.cpu.dcache.ReadReq_mshr_miss_rate::total     0.002521                       # mshr miss rate for ReadReq accesses
system.cpu.dcache.ReadReq_avg_mshr_miss_latency::.cpu.data 60119.702798                       # average ReadReq mshr miss latency
system.cpu.dcache.ReadReq_avg_mshr_miss_latency::total 60119.702798                       # average ReadReq mshr miss latency
system.cpu.dcache.WriteReq_hits::.cpu.data     11900461                       # number of WriteReq hits
system.cpu.dcache.WriteReq_hits::total       11900461                       # number of WriteReq hits
system.cpu.dcache.WriteReq_misses::.cpu.data         5351                       # number of WriteReq misses
system.cpu.dcache.WriteReq_misses::total         5351                       # number of WriteReq misses
system.cpu.dcache.WriteReq_miss_latency::.cpu.data    143751000                       # number of WriteReq miss cycles
system.cpu.dcache.WriteReq_miss_latency::total    143751000                       # number of WriteReq miss cycles
system.cpu.dcache.WriteReq_accesses::.cpu.data     11905812                       # number of WriteReq accesses(hits+misses)
system.cpu.dcache.WriteReq_accesses::total     11905812                       # number of WriteReq accesses(hits+misses)
system.cpu.dcache.WriteReq_miss_rate::.cpu.data     0.000449                       # miss rate for WriteReq accesses
system.cpu.dcache.WriteReq_miss_rate::total     0.000449                       # miss rate for WriteReq accesses
system.cpu.dcache.WriteReq_avg_miss_latency::.cpu.data 26864.324425                       # average WriteReq miss latency
system.cpu.dcache.WriteReq_avg_miss_latency::total 26864.324425                       # average WriteReq miss latency
system.cpu.dcache.WriteReq_mshr_misses::.cpu.data         5351                       # number of WriteReq MSHR misses
system.cpu.dcache.WriteReq_mshr_misses::total         5351                       # number of WriteReq MSHR misses
system.cpu.dcache.WriteReq_mshr_miss_latency::.cpu.data    138400000                       # number of WriteReq MSHR miss cycles
system.cpu.dcache.WriteReq_mshr_miss_latency::total    138400000                       # number of WriteReq MSHR miss cycles
system.cpu.dcache.WriteReq_mshr_miss_rate::.cpu.data     0.000449                       # mshr miss rate for WriteReq accesses
system.cpu.dcache.WriteReq_mshr_miss_rate::total     0.000449                       # mshr miss rate for WriteReq accesses
system.cpu.dcache.WriteReq_avg_mshr_miss_latency::.cpu.data 25864.324425                       # average WriteReq mshr miss latency
system.cpu.dcache.WriteReq_avg_mshr_miss_latency::total 25864.324425                       # average WriteReq mshr miss latency
system.cpu.dcache.LoadLockedReq_hits::.cpu.data           46                       # number of LoadLockedReq hits
system.cpu.dcache.LoadLockedReq_hits::total           46                       # number of LoadLockedReq hits
system.cpu.dcache.LoadLockedReq_accesses::.cpu.data           46                       # number of LoadLockedReq accesses(hits+misses)
system.cpu.dcache.LoadLockedReq_accesses::total           46                       # number of LoadLockedReq accesses(hits+misses)
system.cpu.dcache.StoreCondReq_hits::.cpu.data           46                       # number of StoreCondReq hits
system.cpu.dcache.StoreCondReq_hits::total           46                       # number of StoreCondReq hits
system.cpu.dcache.StoreCondReq_accesses::.cpu.data           46                       # number of StoreCondReq accesses(hits+misses)
system.cpu.dcache.StoreCondReq_accesses::total           46                       # number of StoreCondReq accesses(hits+misses)
system.cpu.dcache.tags.pwrStateResidencyTicks::UNDEFINED 103126982000                       # Cumulative time (in ticks) in various power states
system.cpu.dcache.tags.tagsinuse            31.999221                       # Cycle average of tags in use
system.cpu.dcache.tags.total_refs            37480122                       # Total number of references to valid blocks.
system.cpu.dcache.tags.sampled_refs             69819                       # Sample count of references to valid blocks.
system.cpu.dcache.tags.avg_refs            536.818373                       # Average number of references to valid blocks.
system.cpu.dcache.tags.warmup_cycle            148000                       # Cycle when the warmup percentage was hit.
system.cpu.dcache.tags.occ_blocks::.cpu.data    31.999221                       # Average occupied blocks per requestor
system.cpu.dcache.tags.occ_percent::.cpu.data     0.999976                       # Average percentage of cache occupancy
system.cpu.dcache.tags.occ_percent::total     0.999976                       # Average percentage of cache occupancy
system.cpu.dcache.tags.occ_task_id_blocks::1024           32                       # Occupied blocks per task id
system.cpu.dcache.tags.age_task_id_blocks_1024::0           27                       # Occupied blocks per task id
system.cpu.dcache.tags.age_task_id_blocks_1024::1            5                       # Occupied blocks per task id
system.cpu.dcache.tags.occ_task_id_percent::1024            1                       # Percentage of cache occupancy per task id
system.cpu.dcache.tags.tag_accesses          75030063                       # Number of tag accesses
system.cpu.dcache.tags.data_accesses         75030063                       # Number of data accesses

---------- End Simulation Statistics   ----------
